
---------- Begin Simulation Statistics ----------
sim_seconds                                  0.000028                       # Number of seconds simulated
sim_ticks                                    28319000                       # Number of ticks simulated
final_tick                                   28319000                       # Number of ticks from beginning of simulation (restored from checkpoints and never reset)
sim_freq                                 1000000000000                       # Frequency of simulated ticks
host_inst_rate                                 108123                       # Simulator instruction rate (inst/s)
host_op_rate                                   108106                       # Simulator op (including micro ops) rate (op/s)
host_tick_rate                              495796367                       # Simulator tick rate (ticks/s)
host_mem_usage                                5022108                       # Number of bytes of host memory used
host_seconds                                     0.06                       # Real time elapsed on the host
sim_insts                                        6174                       # Number of instructions simulated
sim_ops                                          6174                       # Number of ops (including micro ops) simulated
system.voltage_domain.voltage                       1                       # Voltage in Volts
system.clk_domain.clock                          1000                       # Clock period in ticks
system.mem_ctrls.pwrStateResidencyTicks::UNDEFINED     28319000                       # Cumulative time (in ticks) in various power states
system.mem_ctrls.bytes_read::.ruby.dir_cntrl0        25600                       # Number of bytes read from this memory
system.mem_ctrls.bytes_read::total              25600                       # Number of bytes read from this memory
system.mem_ctrls.num_reads::.ruby.dir_cntrl0          400                       # Number of read requests responded to by this memory
system.mem_ctrls.num_reads::total                 400                       # Number of read requests responded to by this memory
system.mem_ctrls.bw_read::.ruby.dir_cntrl0    903986723                       # Total read bandwidth from this memory (bytes/s)
system.mem_ctrls.bw_read::total             903986723                       # Total read bandwidth from this memory (bytes/s)
system.mem_ctrls.bw_total::.ruby.dir_cntrl0    903986723                       # Total bandwidth to/from this memory (bytes/s)
system.mem_ctrls.bw_total::total            903986723                       # Total bandwidth to/from this memory (bytes/s)
system.mem_ctrls.avgPriority_.ruby.dir_cntrl0::samples       400.00                       # Average QoS priority value for accepted requests
system.mem_ctrls.priorityMinLatency      0.000000018750                       # per QoS priority minimum request to response latency (s)
system.mem_ctrls.priorityMaxLatency      0.000000592750                       # per QoS priority maximum request to response latency (s)
system.mem_ctrls.numReadWriteTurnArounds            0                       # Number of turnarounds from READ to WRITE
system.mem_ctrls.numWriteReadTurnArounds            0                       # Number of turnarounds from WRITE to READ
system.mem_ctrls.numStayReadState                 792                       # Number of times bus staying in READ state
system.mem_ctrls.numStayWriteState                  0                       # Number of times bus staying in WRITE state
system.mem_ctrls.readReqs                         400                       # Number of read requests accepted
system.mem_ctrls.writeReqs                          0                       # Number of write requests accepted
system.mem_ctrls.readBursts                       400                       # Number of DRAM read bursts, including those serviced by the write queue
system.mem_ctrls.writeBursts                        0                       # Number of DRAM write bursts, including those merged in the write queue
system.mem_ctrls.bytesReadDRAM                  25600                       # Total number of bytes read from DRAM
system.mem_ctrls.bytesReadWrQ                       0                       # Total number of bytes read from write queue
system.mem_ctrls.bytesWritten                       0                       # Total number of bytes written to DRAM
system.mem_ctrls.bytesReadSys                   25600                       # Total read bytes from the system interface side
system.mem_ctrls.bytesWrittenSys                    0                       # Total written bytes from the system interface side
system.mem_ctrls.servicedByWrQ                      0                       # Number of DRAM read bursts serviced by the write queue
system.mem_ctrls.mergedWrBursts                     0                       # Number of DRAM write bursts merged with an existing one
system.mem_ctrls.neitherReadNorWriteReqs            0                       # Number of requests that are neither read nor write
system.mem_ctrls.perBankRdBursts::0                28                       # Per bank write bursts
system.mem_ctrls.perBankRdBursts::1                 0                       # Per bank write bursts
system.mem_ctrls.perBankRdBursts::2                28                       # Per bank write bursts
system.mem_ctrls.perBankRdBursts::3                17                       # Per bank write bursts
system.mem_ctrls.perBankRdBursts::4                56                       # Per bank write bursts
system.mem_ctrls.perBankRdBursts::5                85                       # Per bank write bursts
system.mem_ctrls.perBankRdBursts::6                57                       # Per bank write bursts
system.mem_ctrls.perBankRdBursts::7                50                       # Per bank write bursts
system.mem_ctrls.perBankRdBursts::8                48                       # Per bank write bursts
system.mem_ctrls.perBankRdBursts::9                25                       # Per bank write bursts
system.mem_ctrls.perBankRdBursts::10                0                       # Per bank write bursts
system.mem_ctrls.perBankRdBursts::11                2                       # Per bank write bursts
system.mem_ctrls.perBankRdBursts::12                2                       # Per bank write bursts
system.mem_ctrls.perBankRdBursts::13                1                       # Per bank write bursts
system.mem_ctrls.perBankRdBursts::14                1                       # Per bank write bursts
system.mem_ctrls.perBankRdBursts::15                0                       # Per bank write bursts
system.mem_ctrls.perBankWrBursts::0                 0                       # Per bank write bursts
system.mem_ctrls.perBankWrBursts::1                 0                       # Per bank write bursts
system.mem_ctrls.perBankWrBursts::2                 0                       # Per bank write bursts
system.mem_ctrls.perBankWrBursts::3                 0                       # Per bank write bursts
system.mem_ctrls.perBankWrBursts::4                 0                       # Per bank write bursts
system.mem_ctrls.perBankWrBursts::5                 0                       # Per bank write bursts
system.mem_ctrls.perBankWrBursts::6                 0                       # Per bank write bursts
system.mem_ctrls.perBankWrBursts::7                 0                       # Per bank write bursts
system.mem_ctrls.perBankWrBursts::8                 0                       # Per bank write bursts
system.mem_ctrls.perBankWrBursts::9                 0                       # Per bank write bursts
system.mem_ctrls.perBankWrBursts::10                0                       # Per bank write bursts
system.mem_ctrls.perBankWrBursts::11                0                       # Per bank write bursts
system.mem_ctrls.perBankWrBursts::12                0                       # Per bank write bursts
system.mem_ctrls.perBankWrBursts::13                0                       # Per bank write bursts
system.mem_ctrls.perBankWrBursts::14                0                       # Per bank write bursts
system.mem_ctrls.perBankWrBursts::15                0                       # Per bank write bursts
system.mem_ctrls.numRdRetry                         0                       # Number of times read queue was full causing retry
system.mem_ctrls.numWrRetry                         0                       # Number of times write queue was full causing retry
system.mem_ctrls.totGap                      28253000                       # Total gap between requests
system.mem_ctrls.readPktSize::0                     0                       # Read request sizes (log2)
system.mem_ctrls.readPktSize::1                     0                       # Read request sizes (log2)
system.mem_ctrls.readPktSize::2                     0                       # Read request sizes (log2)
system.mem_ctrls.readPktSize::3                     0                       # Read request sizes (log2)
system.mem_ctrls.readPktSize::4                     0                       # Read request sizes (log2)
system.mem_ctrls.readPktSize::5                     0                       # Read request sizes (log2)
system.mem_ctrls.readPktSize::6                   400                       # Read request sizes (log2)
system.mem_ctrls.writePktSize::0                    0                       # Write request sizes (log2)
system.mem_ctrls.writePktSize::1                    0                       # Write request sizes (log2)
system.mem_ctrls.writePktSize::2                    0                       # Write request sizes (log2)
system.mem_ctrls.writePktSize::3                    0                       # Write request sizes (log2)
system.mem_ctrls.writePktSize::4                    0                       # Write request sizes (log2)
system.mem_ctrls.writePktSize::5                    0                       # Write request sizes (log2)
system.mem_ctrls.writePktSize::6                    0                       # Write request sizes (log2)
system.mem_ctrls.rdQLenPdf::0                     326                       # What read queue length does an incoming req see
system.mem_ctrls.rdQLenPdf::1                      64                       # What read queue length does an incoming req see
system.mem_ctrls.rdQLenPdf::2                      10                       # What read queue length does an incoming req see
system.mem_ctrls.rdQLenPdf::3                       0                       # What read queue length does an incoming req see
system.mem_ctrls.rdQLenPdf::4                       0                       # What read queue length does an incoming req see
system.mem_ctrls.rdQLenPdf::5                       0                       # What read queue length does an incoming req see
system.mem_ctrls.rdQLenPdf::6                       0                       # What read queue length does an incoming req see
system.mem_ctrls.rdQLenPdf::7                       0                       # What read queue length does an incoming req see
system.mem_ctrls.rdQLenPdf::8                       0                       # What read queue length does an incoming req see
system.mem_ctrls.rdQLenPdf::9                       0                       # What read queue length does an incoming req see
system.mem_ctrls.rdQLenPdf::10                      0                       # What read queue length does an incoming req see
system.mem_ctrls.rdQLenPdf::11                      0                       # What read queue length does an incoming req see
system.mem_ctrls.rdQLenPdf::12                      0                       # What read queue length does an incoming req see
system.mem_ctrls.rdQLenPdf::13                      0                       # What read queue length does an incoming req see
system.mem_ctrls.rdQLenPdf::14                      0                       # What read queue length does an incoming req see
system.mem_ctrls.rdQLenPdf::15                      0                       # What read queue length does an incoming req see
system.mem_ctrls.rdQLenPdf::16                      0                       # What read queue length does an incoming req see
system.mem_ctrls.rdQLenPdf::17                      0                       # What read queue length does an incoming req see
system.mem_ctrls.rdQLenPdf::18                      0                       # What read queue length does an incoming req see
system.mem_ctrls.rdQLenPdf::19                      0                       # What read queue length does an incoming req see
system.mem_ctrls.rdQLenPdf::20                      0                       # What read queue length does an incoming req see
system.mem_ctrls.rdQLenPdf::21                      0                       # What read queue length does an incoming req see
system.mem_ctrls.rdQLenPdf::22                      0                       # What read queue length does an incoming req see
system.mem_ctrls.rdQLenPdf::23                      0                       # What read queue length does an incoming req see
system.mem_ctrls.rdQLenPdf::24                      0                       # What read queue length does an incoming req see
system.mem_ctrls.rdQLenPdf::25                      0                       # What read queue length does an incoming req see
system.mem_ctrls.rdQLenPdf::26                      0                       # What read queue length does an incoming req see
system.mem_ctrls.rdQLenPdf::27                      0                       # What read queue length does an incoming req see
system.mem_ctrls.rdQLenPdf::28                      0                       # What read queue length does an incoming req see
system.mem_ctrls.rdQLenPdf::29                      0                       # What read queue length does an incoming req see
system.mem_ctrls.rdQLenPdf::30                      0                       # What read queue length does an incoming req see
system.mem_ctrls.rdQLenPdf::31                      0                       # What read queue length does an incoming req see
system.mem_ctrls.wrQLenPdf::0                       0                       # What write queue length does an incoming req see
system.mem_ctrls.wrQLenPdf::1                       0                       # What write queue length does an incoming req see
system.mem_ctrls.wrQLenPdf::2                       0                       # What write queue length does an incoming req see
system.mem_ctrls.wrQLenPdf::3                       0                       # What write queue length does an incoming req see
system.mem_ctrls.wrQLenPdf::4                       0                       # What write queue length does an incoming req see
system.mem_ctrls.wrQLenPdf::5                       0                       # What write queue length does an incoming req see
system.mem_ctrls.wrQLenPdf::6                       0                       # What write queue length does an incoming req see
system.mem_ctrls.wrQLenPdf::7                       0                       # What write queue length does an incoming req see
system.mem_ctrls.wrQLenPdf::8                       0                       # What write queue length does an incoming req see
system.mem_ctrls.wrQLenPdf::9                       0                       # What write queue length does an incoming req see
system.mem_ctrls.wrQLenPdf::10                      0                       # What write queue length does an incoming req see
system.mem_ctrls.wrQLenPdf::11                      0                       # What write queue length does an incoming req see
system.mem_ctrls.wrQLenPdf::12                      0                       # What write queue length does an incoming req see
system.mem_ctrls.wrQLenPdf::13                      0                       # What write queue length does an incoming req see
system.mem_ctrls.wrQLenPdf::14                      0                       # What write queue length does an incoming req see
system.mem_ctrls.wrQLenPdf::15                      0                       # What write queue length does an incoming req see
system.mem_ctrls.wrQLenPdf::16                      0                       # What write queue length does an incoming req see
system.mem_ctrls.wrQLenPdf::17                      0                       # What write queue length does an incoming req see
system.mem_ctrls.wrQLenPdf::18                      0                       # What write queue length does an incoming req see
system.mem_ctrls.wrQLenPdf::19                      0                       # What write queue length does an incoming req see
system.mem_ctrls.wrQLenPdf::20                      0                       # What write queue length does an incoming req see
system.mem_ctrls.wrQLenPdf::21                      0                       # What write queue length does an incoming req see
system.mem_ctrls.wrQLenPdf::22                      0                       # What write queue length does an incoming req see
system.mem_ctrls.wrQLenPdf::23                      0                       # What write queue length does an incoming req see
system.mem_ctrls.wrQLenPdf::24                      0                       # What write queue length does an incoming req see
system.mem_ctrls.wrQLenPdf::25                      0                       # What write queue length does an incoming req see
system.mem_ctrls.wrQLenPdf::26                      0                       # What write queue length does an incoming req see
system.mem_ctrls.wrQLenPdf::27                      0                       # What write queue length does an incoming req see
system.mem_ctrls.wrQLenPdf::28                      0                       # What write queue length does an incoming req see
system.mem_ctrls.wrQLenPdf::29                      0                       # What write queue length does an incoming req see
system.mem_ctrls.wrQLenPdf::30                      0                       # What write queue length does an incoming req see
system.mem_ctrls.wrQLenPdf::31                      0                       # What write queue length does an incoming req see
system.mem_ctrls.wrQLenPdf::32                      0                       # What write queue length does an incoming req see
system.mem_ctrls.wrQLenPdf::33                      0                       # What write queue length does an incoming req see
system.mem_ctrls.wrQLenPdf::34                      0                       # What write queue length does an incoming req see
system.mem_ctrls.wrQLenPdf::35                      0                       # What write queue length does an incoming req see
system.mem_ctrls.wrQLenPdf::36                      0                       # What write queue length does an incoming req see
system.mem_ctrls.wrQLenPdf::37                      0                       # What write queue length does an incoming req see
system.mem_ctrls.wrQLenPdf::38                      0                       # What write queue length does an incoming req see
system.mem_ctrls.wrQLenPdf::39                      0                       # What write queue length does an incoming req see
system.mem_ctrls.wrQLenPdf::40                      0                       # What write queue length does an incoming req see
system.mem_ctrls.wrQLenPdf::41                      0                       # What write queue length does an incoming req see
system.mem_ctrls.wrQLenPdf::42                      0                       # What write queue length does an incoming req see
system.mem_ctrls.wrQLenPdf::43                      0                       # What write queue length does an incoming req see
system.mem_ctrls.wrQLenPdf::44                      0                       # What write queue length does an incoming req see
system.mem_ctrls.wrQLenPdf::45                      0                       # What write queue length does an incoming req see
system.mem_ctrls.wrQLenPdf::46                      0                       # What write queue length does an incoming req see
system.mem_ctrls.wrQLenPdf::47                      0                       # What write queue length does an incoming req see
system.mem_ctrls.wrQLenPdf::48                      0                       # What write queue length does an incoming req see
system.mem_ctrls.wrQLenPdf::49                      0                       # What write queue length does an incoming req see
system.mem_ctrls.wrQLenPdf::50                      0                       # What write queue length does an incoming req see
system.mem_ctrls.wrQLenPdf::51                      0                       # What write queue length does an incoming req see
system.mem_ctrls.wrQLenPdf::52                      0                       # What write queue length does an incoming req see
system.mem_ctrls.wrQLenPdf::53                      0                       # What write queue length does an incoming req see
system.mem_ctrls.wrQLenPdf::54                      0                       # What write queue length does an incoming req see
system.mem_ctrls.wrQLenPdf::55                      0                       # What write queue length does an incoming req see
system.mem_ctrls.wrQLenPdf::56                      0                       # What write queue length does an incoming req see
system.mem_ctrls.wrQLenPdf::57                      0                       # What write queue length does an incoming req see
system.mem_ctrls.wrQLenPdf::58                      0                       # What write queue length does an incoming req see
system.mem_ctrls.wrQLenPdf::59                      0                       # What write queue length does an incoming req see
system.mem_ctrls.wrQLenPdf::60                      0                       # What write queue length does an incoming req see
system.mem_ctrls.wrQLenPdf::61                      0                       # What write queue length does an incoming req see
system.mem_ctrls.wrQLenPdf::62                      0                       # What write queue length does an incoming req see
system.mem_ctrls.wrQLenPdf::63                      0                       # What write queue length does an incoming req see
system.mem_ctrls.bytesPerActivate::samples           81                       # Bytes accessed per row activation
system.mem_ctrls.bytesPerActivate::mean    290.765432                       # Bytes accessed per row activation
system.mem_ctrls.bytesPerActivate::gmean   204.955014                       # Bytes accessed per row activation
system.mem_ctrls.bytesPerActivate::stdev   266.014016                       # Bytes accessed per row activation
system.mem_ctrls.bytesPerActivate::0-127           16     19.75%     19.75% # Bytes accessed per row activation
system.mem_ctrls.bytesPerActivate::128-255           28     34.57%     54.32% # Bytes accessed per row activation
system.mem_ctrls.bytesPerActivate::256-383           15     18.52%     72.84% # Bytes accessed per row activation
system.mem_ctrls.bytesPerActivate::384-511            9     11.11%     83.95% # Bytes accessed per row activation
system.mem_ctrls.bytesPerActivate::512-639            3      3.70%     87.65% # Bytes accessed per row activation
system.mem_ctrls.bytesPerActivate::640-767            2      2.47%     90.12% # Bytes accessed per row activation
system.mem_ctrls.bytesPerActivate::768-895            1      1.23%     91.36% # Bytes accessed per row activation
system.mem_ctrls.bytesPerActivate::896-1023            2      2.47%     93.83% # Bytes accessed per row activation
system.mem_ctrls.bytesPerActivate::1024-1151            5      6.17%    100.00% # Bytes accessed per row activation
system.mem_ctrls.bytesPerActivate::total           81                       # Bytes accessed per row activation
system.mem_ctrls.masterReadBytes::.ruby.dir_cntrl0        25600                       # Per-master bytes read from memory
system.mem_ctrls.masterReadRate::.ruby.dir_cntrl0 903986722.695010423660                       # Per-master bytes read from memory rate (Bytes/sec)
system.mem_ctrls.masterReadAccesses::.ruby.dir_cntrl0          400                       # Per-master read serviced memory accesses
system.mem_ctrls.masterReadTotalLat::.ruby.dir_cntrl0     12811250                       # Per-master read total memory access latency
system.mem_ctrls.masterReadAvgLat::.ruby.dir_cntrl0     32028.12                       # Per-master read average memory access latency
system.mem_ctrls.totQLat                      5311250                       # Total ticks spent queuing
system.mem_ctrls.totMemAccLat                12811250                       # Total ticks spent from burst creation until serviced by the DRAM
system.mem_ctrls.totBusLat                    2000000                       # Total ticks spent in databus transfers
system.mem_ctrls.avgQLat                     13278.12                       # Average queueing delay per DRAM burst
system.mem_ctrls.avgBusLat                    5000.00                       # Average bus latency per DRAM burst
system.mem_ctrls.avgMemAccLat                32028.12                       # Average memory access latency per DRAM burst
system.mem_ctrls.avgRdBW                       903.99                       # Average DRAM read bandwidth in MiByte/s
system.mem_ctrls.avgWrBW                         0.00                       # Average achieved write bandwidth in MiByte/s
system.mem_ctrls.avgRdBWSys                    903.99                       # Average system read bandwidth in MiByte/s
system.mem_ctrls.avgWrBWSys                      0.00                       # Average system write bandwidth in MiByte/s
system.mem_ctrls.peakBW                      12800.00                       # Theoretical peak bandwidth in MiByte/s
system.mem_ctrls.busUtil                         7.06                       # Data bus utilization in percentage
system.mem_ctrls.busUtilRead                     7.06                       # Data bus utilization in percentage for reads
system.mem_ctrls.busUtilWrite                    0.00                       # Data bus utilization in percentage for writes
system.mem_ctrls.avgRdQLen                       1.21                       # Average read queue length when enqueuing
system.mem_ctrls.avgWrQLen                       0.00                       # Average write queue length when enqueuing
system.mem_ctrls.readRowHits                      310                       # Number of row buffer hits during reads
system.mem_ctrls.writeRowHits                       0                       # Number of row buffer hits during writes
system.mem_ctrls.readRowHitRate                 77.50                       # Row buffer hit rate for reads
system.mem_ctrls.writeRowHitRate                  nan                       # Row buffer hit rate for writes
system.mem_ctrls.avgGap                      70632.50                       # Average gap between requests
system.mem_ctrls.pageHitRate                    77.50                       # Row buffer hit rate, read and write combined
system.mem_ctrls_0.actEnergy                   499800                       # Energy for activate commands per rank (pJ)
system.mem_ctrls_0.preEnergy                   239085                       # Energy for precharge commands per rank (pJ)
system.mem_ctrls_0.readEnergy                 2291940                       # Energy for read commands per rank (pJ)
system.mem_ctrls_0.writeEnergy                      0                       # Energy for write commands per rank (pJ)
system.mem_ctrls_0.refreshEnergy         1843920.000000                       # Energy for refresh commands per rank (pJ)
system.mem_ctrls_0.actBackEnergy              4274430                       # Energy for active background per rank (pJ)
system.mem_ctrls_0.preBackEnergy                50400                       # Energy for precharge background per rank (pJ)
system.mem_ctrls_0.actPowerDownEnergy         8554560                       # Energy for active power-down per rank (pJ)
system.mem_ctrls_0.prePowerDownEnergy           21120                       # Energy for precharge power-down per rank (pJ)
system.mem_ctrls_0.selfRefreshEnergy                0                       # Energy for self refresh per rank (pJ)
system.mem_ctrls_0.totalEnergy               17775255                       # Total energy per rank (pJ)
system.mem_ctrls_0.averagePower            627.679473                       # Core power per rank (mW)
system.mem_ctrls_0.totalIdleTime             18696000                       # Total Idle time Per DRAM Rank
system.mem_ctrls_0.memoryStateTime::IDLE        33000                       # Time in different power states
system.mem_ctrls_0.memoryStateTime::REF        780000                       # Time in different power states
system.mem_ctrls_0.memoryStateTime::SREF            0                       # Time in different power states
system.mem_ctrls_0.memoryStateTime::PRE_PDN        55000                       # Time in different power states
system.mem_ctrls_0.memoryStateTime::ACT       8688750                       # Time in different power states
system.mem_ctrls_0.memoryStateTime::ACT_PDN     18762250                       # Time in different power states
system.mem_ctrls_1.actEnergy                   142800                       # Energy for activate commands per rank (pJ)
system.mem_ctrls_1.preEnergy                    68310                       # Energy for precharge commands per rank (pJ)
system.mem_ctrls_1.readEnergy                  564060                       # Energy for read commands per rank (pJ)
system.mem_ctrls_1.writeEnergy                      0                       # Energy for write commands per rank (pJ)
system.mem_ctrls_1.refreshEnergy         1843920.000000                       # Energy for refresh commands per rank (pJ)
system.mem_ctrls_1.actBackEnergy              1401060                       # Energy for active background per rank (pJ)
system.mem_ctrls_1.preBackEnergy               229440                       # Energy for precharge background per rank (pJ)
system.mem_ctrls_1.actPowerDownEnergy         9512730                       # Energy for active power-down per rank (pJ)
system.mem_ctrls_1.prePowerDownEnergy         1454880                       # Energy for precharge power-down per rank (pJ)
system.mem_ctrls_1.selfRefreshEnergy                0                       # Energy for self refresh per rank (pJ)
system.mem_ctrls_1.totalEnergy               15217200                       # Total energy per rank (pJ)
system.mem_ctrls_1.averagePower            537.349483                       # Core power per rank (mW)
system.mem_ctrls_1.totalIdleTime             24616250                       # Total Idle time Per DRAM Rank
system.mem_ctrls_1.memoryStateTime::IDLE       515500                       # Time in different power states
system.mem_ctrls_1.memoryStateTime::REF        780000                       # Time in different power states
system.mem_ctrls_1.memoryStateTime::SREF            0                       # Time in different power states
system.mem_ctrls_1.memoryStateTime::PRE_PDN      3788250                       # Time in different power states
system.mem_ctrls_1.memoryStateTime::ACT       2375000                       # Time in different power states
system.mem_ctrls_1.memoryStateTime::ACT_PDN     20860250                       # Time in different power states
system.pwrStateResidencyTicks::UNDEFINED     28319000                       # Cumulative time (in ticks) in various power states
system.cpu.branchPred.lookups                    1895                       # Number of BP lookups
system.cpu.branchPred.condPredicted              1381                       # Number of conditional branches predicted
system.cpu.branchPred.condIncorrect               556                       # Number of conditional branches incorrect
system.cpu.branchPred.BTBLookups                  853                       # Number of BTB lookups
system.cpu.branchPred.BTBHits                     312                       # Number of BTB hits
system.cpu.branchPred.BTBCorrect                    0                       # Number of correct BTB predictions (this stat may not work properly.
system.cpu.branchPred.BTBHitPct             36.576788                       # BTB Hit Percentage
system.cpu.branchPred.usedRAS                       0                       # Number of times the RAS was used to get a target.
system.cpu.branchPred.RASInCorrect                  0                       # Number of incorrect RAS predictions.
system.cpu.branchPred.indirectLookups             343                       # Number of indirect predictor lookups.
system.cpu.branchPred.indirectHits                 35                       # Number of indirect target hits.
system.cpu.branchPred.indirectMisses              308                       # Number of indirect misses.
system.cpu.branchPredindirectMispredicted          181                       # Number of mispredicted indirect branches.
system.cpu_voltage_domain.voltage                   1                       # Voltage in Volts
system.cpu_clk_domain.clock                       500                       # Clock period in ticks
system.cpu.dtb.read_hits                            0                       # DTB read hits
system.cpu.dtb.read_misses                          0                       # DTB read misses
system.cpu.dtb.read_accesses                        0                       # DTB read accesses
system.cpu.dtb.write_hits                           0                       # DTB write hits
system.cpu.dtb.write_misses                         0                       # DTB write misses
system.cpu.dtb.write_accesses                       0                       # DTB write accesses
system.cpu.dtb.hits                                 0                       # DTB hits
system.cpu.dtb.misses                               0                       # DTB misses
system.cpu.dtb.accesses                             0                       # DTB accesses
system.cpu.itb.read_hits                            0                       # DTB read hits
system.cpu.itb.read_misses                          0                       # DTB read misses
system.cpu.itb.read_accesses                        0                       # DTB read accesses
system.cpu.itb.write_hits                           0                       # DTB write hits
system.cpu.itb.write_misses                         0                       # DTB write misses
system.cpu.itb.write_accesses                       0                       # DTB write accesses
system.cpu.itb.hits                                 0                       # DTB hits
system.cpu.itb.misses                               0                       # DTB misses
system.cpu.itb.accesses                             0                       # DTB accesses
system.cpu.workload.numSyscalls                     9                       # Number of system calls
system.cpu.pwrStateResidencyTicks::ON        28319000                       # Cumulative time (in ticks) in various power states
system.cpu.numCycles                            56639                       # number of cpu cycles simulated
system.cpu.numWorkItemsStarted                      0                       # number of work items this cpu started
system.cpu.numWorkItemsCompleted                    0                       # number of work items this cpu completed
system.cpu.iew.issued_inst_type_0::No_OpClass           37      0.53%      0.53% # types of issued instructions
system.cpu.iew.issued_inst_type_0::IntAlu         4439     63.99%     64.52% # types of issued instructions
system.cpu.iew.issued_inst_type_0::IntMult            2      0.03%     64.55% # types of issued instructions
system.cpu.iew.issued_inst_type_0::IntDiv            4      0.06%     64.61% # types of issued instructions
system.cpu.iew.issued_inst_type_0::FloatAdd            0      0.00%     64.61% # types of issued instructions
system.cpu.iew.issued_inst_type_0::FloatCmp            0      0.00%     64.61% # types of issued instructions
system.cpu.iew.issued_inst_type_0::FloatCvt            0      0.00%     64.61% # types of issued instructions
system.cpu.iew.issued_inst_type_0::FloatMult            0      0.00%     64.61% # types of issued instructions
system.cpu.iew.issued_inst_type_0::FloatMultAcc            0      0.00%     64.61% # types of issued instructions
system.cpu.iew.issued_inst_type_0::FloatDiv            0      0.00%     64.61% # types of issued instructions
system.cpu.iew.issued_inst_type_0::FloatMisc            0      0.00%     64.61% # types of issued instructions
system.cpu.iew.issued_inst_type_0::FloatSqrt            0      0.00%     64.61% # types of issued instructions
system.cpu.iew.issued_inst_type_0::SimdAdd            0      0.00%     64.61% # types of issued instructions
system.cpu.iew.issued_inst_type_0::SimdAddAcc            0      0.00%     64.61% # types of issued instructions
system.cpu.iew.issued_inst_type_0::SimdAlu            0      0.00%     64.61% # types of issued instructions
system.cpu.iew.issued_inst_type_0::SimdCmp            0      0.00%     64.61% # types of issued instructions
system.cpu.iew.issued_inst_type_0::SimdCvt            0      0.00%     64.61% # types of issued instructions
system.cpu.iew.issued_inst_type_0::SimdMisc            0      0.00%     64.61% # types of issued instructions
system.cpu.iew.issued_inst_type_0::SimdMult            0      0.00%     64.61% # types of issued instructions
system.cpu.iew.issued_inst_type_0::SimdMultAcc            0      0.00%     64.61% # types of issued instructions
system.cpu.iew.issued_inst_type_0::SimdShift            0      0.00%     64.61% # types of issued instructions
system.cpu.iew.issued_inst_type_0::SimdShiftAcc            0      0.00%     64.61% # types of issued instructions
system.cpu.iew.issued_inst_type_0::SimdSqrt            0      0.00%     64.61% # types of issued instructions
system.cpu.iew.issued_inst_type_0::SimdFloatAdd            0      0.00%     64.61% # types of issued instructions
system.cpu.iew.issued_inst_type_0::SimdFloatAlu            0      0.00%     64.61% # types of issued instructions
system.cpu.iew.issued_inst_type_0::SimdFloatCmp            0      0.00%     64.61% # types of issued instructions
system.cpu.iew.issued_inst_type_0::SimdFloatCvt            0      0.00%     64.61% # types of issued instructions
system.cpu.iew.issued_inst_type_0::SimdFloatDiv            0      0.00%     64.61% # types of issued instructions
system.cpu.iew.issued_inst_type_0::SimdFloatMisc            0      0.00%     64.61% # types of issued instructions
system.cpu.iew.issued_inst_type_0::SimdFloatMult            0      0.00%     64.61% # types of issued instructions
system.cpu.iew.issued_inst_type_0::SimdFloatMultAcc            0      0.00%     64.61% # types of issued instructions
system.cpu.iew.issued_inst_type_0::SimdFloatSqrt            0      0.00%     64.61% # types of issued instructions
system.cpu.iew.issued_inst_type_0::SimdAes            0      0.00%     64.61% # types of issued instructions
system.cpu.iew.issued_inst_type_0::SimdAesMix            0      0.00%     64.61% # types of issued instructions
system.cpu.iew.issued_inst_type_0::SimdSha1Hash            0      0.00%     64.61% # types of issued instructions
system.cpu.iew.issued_inst_type_0::SimdSha1Hash2            0      0.00%     64.61% # types of issued instructions
system.cpu.iew.issued_inst_type_0::SimdSha256Hash            0      0.00%     64.61% # types of issued instructions
system.cpu.iew.issued_inst_type_0::SimdSha256Hash2            0      0.00%     64.61% # types of issued instructions
system.cpu.iew.issued_inst_type_0::SimdShaSigma2            0      0.00%     64.61% # types of issued instructions
system.cpu.iew.issued_inst_type_0::SimdShaSigma3            0      0.00%     64.61% # types of issued instructions
system.cpu.iew.issued_inst_type_0::MemRead         1344     19.37%     83.98% # types of issued instructions
system.cpu.iew.issued_inst_type_0::MemWrite         1099     15.84%     99.83% # types of issued instructions
system.cpu.iew.issued_inst_type_0::FloatMemRead            0      0.00%     99.83% # types of issued instructions
system.cpu.iew.issued_inst_type_0::FloatMemWrite           12      0.17%    100.00% # types of issued instructions
system.cpu.iew.issued_inst_type_0::IprAccess            0      0.00%    100.00% # types of issued instructions
system.cpu.iew.issued_inst_type_0::InstPrefetch            0      0.00%    100.00% # types of issued instructions
system.cpu.iew.issued_inst_type_0::Accelerator            0      0.00%    100.00% # types of issued instructions
system.cpu.iew.issued_inst_type_0::total         6937                       # types of issued instructions
system.cpu.iew.issue_stall_cycles_front_end        29701                       # Issue stage stalled due to front end            (i.e., inst fetch, branch misprediction)
system.cpu.iew.issue_stall_cycles_raw_dependency         9351                       # Issue stage stalled due to RAW dependencies
system.cpu.iew.issue_stall_cycles_barrier          241                       # Issue stage stalled due to memory barriers
system.cpu.iew.issue_stall_cycles_functional_unit         2181                       # Issue stage stalled due to unavailable FUs
system.cpu.iew.issue_stall_cycles_rob            7796                       # Issue stage stalled due to unavailable ROB
system.cpu.iew.issue_stall_cycles_squash          432                       # Issue stage stalled due to squash events
system.cpu.iew.num_issued_insts                  6937                       # Total number of issued instructions
system.cpu.num_committed_insts                   6174                       # Number of Instructions Simulated
system.cpu.cpi                               9.173793                       # CPI: Cycles Per Instruction (not including idle cycles)
system.cpu.cpi_total                         9.173793                       # CPI: Total CPI of All Threads (not including idle cycles)
system.cpu.ipc                               0.109006                       # IPC: Instructions Per Cycle (not including idle cycles)
system.cpu.ipc_total                         0.109006                       # IPC: Total IPC of All Threads (not including idle cycles)
system.cpu.int_regfile_reads                     8047                       # number of integer regfile reads
system.cpu.int_regfile_writes                    4059                       # number of integer regfile writes
system.cpu.fp_regfile_reads                        12                       # number of floating regfile reads
system.cpu.misc_regfile_reads                      11                       # number of misc regfile reads
system.cpu.int_regfile_16_byte_writes            1830                       # number of 16-byte int regfile writes
system.cpu.int_regfile_32_byte_writes            1435                       # number of 32-byte int regfile writes
system.cpu.int_regfile_48_byte_writes              34                       # number of 48-byte int regfile writes
system.cpu.int_regfile_64_byte_writes             760                       # number of 64-byte int regfile writes
system.cpu.imem_accesses                          855                       # number of inst memory accesses
system.cpu.dmem_accesses                         2232                       # number of data memory accesses
system.cpu.dmem_to_l1_latency                 8415500                       # latency to L1 of data memory accesses
system.cpu.imem_latency                      18419000                       # latency of inst memory accesses
system.cpu.dmem_latency                      20002000                       # latency of data memory accesses
system.cpu.dmem_to_l1_amal                3770.385305                       # avg to-L1 data memory access latency
system.cpu.imem_amal                     21542.690058                       # avg inst memory access latency
system.cpu.dmem_amal                      8961.469534                       # avg data memory access latency
system.cpu.in_task_cycles                       56639                      
system.cpu.in_task_insts                         6174                      
system.cpu.in_runtime_cycles                        0                      
system.cpu.in_runtime_insts                         0                      
system.cpu.appl_runtime_cycles                      0                       # number of cycles spent in appl runtime
system.cpu.appl_num_enqueue                         0                       # number of appl enqueue
system.cpu.appl_enqueue_cycles                      0                       # number of cycles spent in appl enqueue
system.cpu.appl_num_dequeue                         0                       # number of appl dequeue
system.cpu.appl_dequeue_cycles                      0                       # number of cycles spent in appl dequeue
system.cpu.appl_num_steal_successful                0                       # number of successful steals
system.cpu.appl_steal_successful_cycles             0                       # cycles of successful steals
system.cpu.appl_num_steal_failed                    0                       # number of failed steals
system.cpu.appl_steal_failed_cycles                 0                       # cycles of failed steals
system.cpu.appl_num_execute                         0                       # number of appl execute
system.ruby.clk_domain.clock                      500                       # Clock period in ticks
system.ruby.pwrStateResidencyTicks::UNDEFINED     28319000                       # Cumulative time (in ticks) in various power states
system.ruby.delayHist::bucket_size                  1                       # delay histogram for all message
system.ruby.delayHist::max_bucket                   9                       # delay histogram for all message
system.ruby.delayHist::samples                   1367                       # delay histogram for all message
system.ruby.delayHist::mean                  0.014631                       # delay histogram for all message
system.ruby.delayHist::stdev                 0.315193                       # delay histogram for all message
system.ruby.delayHist                    |        1363     99.71%     99.71% |           0      0.00%     99.71% |           2      0.15%     99.85% |           0      0.00%     99.85% |           0      0.00%     99.85% |           0      0.00%     99.85% |           0      0.00%     99.85% |           0      0.00%     99.85% |           2      0.15%    100.00% |           0      0.00%    100.00% # delay histogram for all message
system.ruby.delayHist::total                     1367                       # delay histogram for all message
system.ruby.dir_cntrl0.requestToDir.avg_buf_msgs     0.007062                       # Average number of messages in buffer
system.ruby.dir_cntrl0.requestToDir.avg_stall_time  3998.799393                       # Average number of cycles messages are stalled in this MB
system.ruby.dir_cntrl0.responseFromDir.avg_buf_msgs     0.007062                       # Average number of messages in buffer
system.ruby.dir_cntrl0.responseFromDir.avg_stall_time   498.808221                       # Average number of cycles messages are stalled in this MB
system.ruby.dir_cntrl0.responseFromMemory.avg_buf_msgs     0.010214                       # Average number of messages in buffer
system.ruby.dir_cntrl0.responseFromMemory.avg_stall_time   498.817049                       # Average number of cycles messages are stalled in this MB
system.ruby.dir_cntrl0.pwrStateResidencyTicks::UNDEFINED     28319000                       # Cumulative time (in ticks) in various power states
system.ruby.l1d_cntrl0.L1cache.demand_hits         2081                       # Number of cache demand hits
system.ruby.l1d_cntrl0.L1cache.demand_half_misses            6                       # Number of half misses (accessing line already being requested)
system.ruby.l1d_cntrl0.L1cache.demand_misses          145                       # Number of cache demand misses
system.ruby.l1d_cntrl0.L1cache.demand_accesses         2232                       # Number of cache demand accesses
system.ruby.l1d_cntrl0.L1cache.demand_hit_rate     0.932348                       # Hit rate for demand accesses
system.ruby.l1d_cntrl0.L1cache.private_hits         2081                       # Number of cache hits to lines brought by the same thread
system.ruby.l1d_cntrl0.L1cache.shared_hits            0                       # Number of cache hits to lines brought by a different thread
system.ruby.l1d_cntrl0.mandatoryQueue.avg_buf_msgs     0.039302                       # Average number of messages in buffer
system.ruby.l1d_cntrl0.mandatoryQueue.avg_stall_time   497.404569                       # Average number of cycles messages are stalled in this MB
system.ruby.l1d_cntrl0.requestFromL1Cache.avg_buf_msgs     0.005120                       # Average number of messages in buffer
system.ruby.l1d_cntrl0.requestFromL1Cache.avg_stall_time   994.773827                       # Average number of cycles messages are stalled in this MB
system.ruby.l1d_cntrl0.responseToL1Cache.avg_buf_msgs     0.002560                       # Average number of messages in buffer
system.ruby.l1d_cntrl0.responseToL1Cache.avg_stall_time  3472.624387                       # Average number of cycles messages are stalled in this MB
system.ruby.l1d_cntrl0.tca_sequencer.pwrStateResidencyTicks::UNDEFINED     28319000                       # Cumulative time (in ticks) in various power states
system.ruby.l1d_cntrl0.tca_sequencer.cycle_count_per_N_reqs::0        54261                       # number of cycles in which there're N incoming reqs
system.ruby.l1d_cntrl0.tca_sequencer.cycle_count_per_N_reqs::1         2232                       # number of cycles in which there're N incoming reqs
system.ruby.l1d_cntrl0.tca_sequencer.cycle_count_per_N_reqs::total        56493                       # number of cycles in which there're N incoming reqs
system.ruby.l1d_cntrl0.unblockFromL1Cache.avg_buf_msgs     0.002560                       # Average number of messages in buffer
system.ruby.l1d_cntrl0.unblockFromL1Cache.avg_stall_time   496.080370                       # Average number of cycles messages are stalled in this MB
system.ruby.l1d_cntrl0.pwrStateResidencyTicks::UNDEFINED     28319000                       # Cumulative time (in ticks) in various power states
system.ruby.l1d_cntrl0.fully_busy_cycles         2371                       # cycles for which number of transistions == max transitions
system.ruby.l1i_cntrl0.L1cache.demand_hits          576                       # Number of cache demand hits
system.ruby.l1i_cntrl0.L1cache.demand_half_misses           13                       # Number of half misses (accessing line already being requested)
system.ruby.l1i_cntrl0.L1cache.demand_misses          266                       # Number of cache demand misses
system.ruby.l1i_cntrl0.L1cache.demand_accesses          855                       # Number of cache demand accesses
system.ruby.l1i_cntrl0.L1cache.demand_hit_rate     0.673684                       # Hit rate for demand accesses
system.ruby.l1i_cntrl0.L1cache.private_hits          576                       # Number of cache hits to lines brought by the same thread
system.ruby.l1i_cntrl0.L1cache.shared_hits            0                       # Number of cache hits to lines brought by a different thread
system.ruby.l1i_cntrl0.mandatoryQueue.avg_buf_msgs     0.015520                       # Average number of messages in buffer
system.ruby.l1i_cntrl0.mandatoryQueue.avg_stall_time   533.175605                       # Average number of cycles messages are stalled in this MB
system.ruby.l1i_cntrl0.requestFromL1Cache.avg_buf_msgs     0.009393                       # Average number of messages in buffer
system.ruby.l1i_cntrl0.requestFromL1Cache.avg_stall_time   999.947032                       # Average number of cycles messages are stalled in this MB
system.ruby.l1i_cntrl0.responseToL1Cache.avg_buf_msgs     0.004696                       # Average number of messages in buffer
system.ruby.l1i_cntrl0.responseToL1Cache.avg_stall_time  3501.430135                       # Average number of cycles messages are stalled in this MB
system.ruby.l1i_cntrl0.tca_sequencer.pwrStateResidencyTicks::UNDEFINED     28319000                       # Cumulative time (in ticks) in various power states
system.ruby.l1i_cntrl0.tca_sequencer.cycle_count_per_N_reqs::0        55781                       # number of cycles in which there're N incoming reqs
system.ruby.l1i_cntrl0.tca_sequencer.cycle_count_per_N_reqs::1          855                       # number of cycles in which there're N incoming reqs
system.ruby.l1i_cntrl0.tca_sequencer.cycle_count_per_N_reqs::total        56636                       # number of cycles in which there're N incoming reqs
system.ruby.l1i_cntrl0.pwrStateResidencyTicks::UNDEFINED     28319000                       # Cumulative time (in ticks) in various power states
system.ruby.l1i_cntrl0.fully_busy_cycles         1145                       # cycles for which number of transistions == max transitions
system.ruby.l2_cntrl0.DirRequestFromL2Cache.avg_buf_msgs     0.014125                       # Average number of messages in buffer
system.ruby.l2_cntrl0.DirRequestFromL2Cache.avg_stall_time   999.805784                       # Average number of cycles messages are stalled in this MB
system.ruby.l2_cntrl0.L1RequestToL2Cache.avg_buf_msgs     0.007257                       # Average number of messages in buffer
system.ruby.l2_cntrl0.L1RequestToL2Cache.avg_stall_time  4005.791165                       # Average number of cycles messages are stalled in this MB
system.ruby.l2_cntrl0.L2cache.demand_hits           11                       # Number of cache demand hits
system.ruby.l2_cntrl0.L2cache.demand_half_misses            0                       # Number of half misses (accessing line already being requested)
system.ruby.l2_cntrl0.L2cache.demand_misses          400                       # Number of cache demand misses
system.ruby.l2_cntrl0.L2cache.demand_accesses          411                       # Number of cache demand accesses
system.ruby.l2_cntrl0.L2cache.demand_hit_rate     0.026764                       # Hit rate for demand accesses
system.ruby.l2_cntrl0.L2cache.private_hits            0                       # Number of cache hits to lines brought by the same thread
system.ruby.l2_cntrl0.L2cache.shared_hits            0                       # Number of cache hits to lines brought by a different thread
system.ruby.l2_cntrl0.responseFromL2Cache.avg_buf_msgs     0.007451                       # Average number of messages in buffer
system.ruby.l2_cntrl0.responseFromL2Cache.avg_stall_time   507.124192                       # Average number of cycles messages are stalled in this MB
system.ruby.l2_cntrl0.responseToL2Cache.avg_buf_msgs     0.007062                       # Average number of messages in buffer
system.ruby.l2_cntrl0.responseToL2Cache.avg_stall_time  3491.286769                       # Average number of cycles messages are stalled in this MB
system.ruby.l2_cntrl0.unblockToL2Cache.avg_buf_msgs     0.002560                       # Average number of messages in buffer
system.ruby.l2_cntrl0.unblockToL2Cache.avg_stall_time  3472.191816                       # Average number of cycles messages are stalled in this MB
system.ruby.l2_cntrl0.pwrStateResidencyTicks::UNDEFINED     28319000                       # Cumulative time (in ticks) in various power states
system.ruby.memctrl_clk_domain.clock             1500                       # Clock period in ticks
system.ruby.network.routers0.port_buffers01.avg_buf_msgs     0.004696                       # Average number of messages in buffer
system.ruby.network.routers0.port_buffers01.avg_stall_time  3002.789646                       # Average number of cycles messages are stalled in this MB
system.ruby.network.routers0.port_buffers04.avg_buf_msgs     0.002560                       # Average number of messages in buffer
system.ruby.network.routers0.port_buffers04.avg_stall_time  2976.588157                       # Average number of cycles messages are stalled in this MB
system.ruby.network.routers0.port_buffers06.avg_buf_msgs     0.007257                       # Average number of messages in buffer
system.ruby.network.routers0.port_buffers06.avg_stall_time  1499.894064                       # Average number of cycles messages are stalled in this MB
system.ruby.network.routers0.port_buffers08.avg_buf_msgs     0.002560                       # Average number of messages in buffer
system.ruby.network.routers0.port_buffers08.avg_stall_time   992.143084                       # Average number of cycles messages are stalled in this MB
system.ruby.network.routers0.pwrStateResidencyTicks::UNDEFINED     28319000                       # Cumulative time (in ticks) in various power states
system.ruby.network.routers0.percent_links_utilized     1.252104                      
system.ruby.network.routers0.msg_count.Control::0          411                      
system.ruby.network.routers0.msg_count.Response_Data::1          411                      
system.ruby.network.routers0.msg_count.Response_Control::2          145                      
system.ruby.network.routers0.msg_bytes.Control::0         3288                      
system.ruby.network.routers0.msg_bytes.Response_Data::1        29592                      
system.ruby.network.routers0.msg_bytes.Response_Control::2         1160                      
system.ruby.network.routers1.port_buffers00.avg_buf_msgs     0.007257                       # Average number of messages in buffer
system.ruby.network.routers1.port_buffers00.avg_stall_time  3505.932413                       # Average number of cycles messages are stalled in this MB
system.ruby.network.routers1.port_buffers01.avg_buf_msgs     0.007062                       # Average number of messages in buffer
system.ruby.network.routers1.port_buffers01.avg_stall_time  2992.584484                       # Average number of cycles messages are stalled in this MB
system.ruby.network.routers1.port_buffers02.avg_buf_msgs     0.002560                       # Average number of messages in buffer
system.ruby.network.routers1.port_buffers02.avg_stall_time  2976.217381                       # Average number of cycles messages are stalled in this MB
system.ruby.network.routers1.port_buffers03.avg_buf_msgs     0.007062                       # Average number of messages in buffer
system.ruby.network.routers1.port_buffers03.avg_stall_time  1499.682192                       # Average number of cycles messages are stalled in this MB
system.ruby.network.routers1.port_buffers04.avg_buf_msgs     0.007257                       # Average number of messages in buffer
system.ruby.network.routers1.port_buffers04.avg_stall_time  1005.852961                       # Average number of cycles messages are stalled in this MB
system.ruby.network.routers1.pwrStateResidencyTicks::UNDEFINED     28319000                       # Cumulative time (in ticks) in various power states
system.ruby.network.routers1.percent_links_utilized     3.643755                      
system.ruby.network.routers1.msg_count.Control::0          811                      
system.ruby.network.routers1.msg_count.Response_Data::1          811                      
system.ruby.network.routers1.msg_count.Response_Control::2          145                      
system.ruby.network.routers1.msg_bytes.Control::0         6488                      
system.ruby.network.routers1.msg_bytes.Response_Data::1        58392                      
system.ruby.network.routers1.msg_bytes.Response_Control::2         1160                      
system.ruby.network.routers2.port_buffers00.avg_buf_msgs     0.007062                       # Average number of messages in buffer
system.ruby.network.routers2.port_buffers00.avg_stall_time  3499.011265                       # Average number of cycles messages are stalled in this MB
system.ruby.network.routers2.port_buffers03.avg_buf_msgs     0.007062                       # Average number of messages in buffer
system.ruby.network.routers2.port_buffers03.avg_stall_time   997.598785                       # Average number of cycles messages are stalled in this MB
system.ruby.network.routers2.pwrStateResidencyTicks::UNDEFINED     28319000                       # Cumulative time (in ticks) in various power states
system.ruby.network.routers2.percent_links_utilized     1.765599                      
system.ruby.network.routers2.msg_count.Control::0          400                      
system.ruby.network.routers2.msg_count.Response_Data::1          400                      
system.ruby.network.routers2.msg_bytes.Control::0         3200                      
system.ruby.network.routers2.msg_bytes.Response_Data::1        28800                      
system.ruby.network.int_link_buffers00.avg_buf_msgs     0.007257                       # Average number of messages in buffer
system.ruby.network.int_link_buffers00.avg_stall_time  1999.823440                       # Average number of cycles messages are stalled in this MB
system.ruby.network.int_link_buffers02.avg_buf_msgs     0.002560                       # Average number of messages in buffer
system.ruby.network.int_link_buffers02.avg_stall_time  1488.188143                       # Average number of cycles messages are stalled in this MB
system.ruby.network.int_link_buffers03.avg_buf_msgs     0.007062                       # Average number of messages in buffer
system.ruby.network.int_link_buffers03.avg_stall_time  1999.540944                       # Average number of cycles messages are stalled in this MB
system.ruby.network.int_link_buffers04.avg_buf_msgs     0.007257                       # Average number of messages in buffer
system.ruby.network.int_link_buffers04.avg_stall_time  1504.564073                       # Average number of cycles messages are stalled in this MB
system.ruby.network.int_link_buffers07.avg_buf_msgs     0.007062                       # Average number of messages in buffer
system.ruby.network.int_link_buffers07.avg_stall_time  1496.371694                       # Average number of cycles messages are stalled in this MB
system.ruby.network.int_link_buffers10.avg_buf_msgs     0.007257                       # Average number of messages in buffer
system.ruby.network.int_link_buffers10.avg_stall_time  2501.933331                       # Average number of cycles messages are stalled in this MB
system.ruby.network.int_link_buffers12.avg_buf_msgs     0.007257                       # Average number of messages in buffer
system.ruby.network.int_link_buffers12.avg_stall_time  3006.056005                       # Average number of cycles messages are stalled in this MB
system.ruby.network.int_link_buffers13.avg_buf_msgs     0.007062                       # Average number of messages in buffer
system.ruby.network.int_link_buffers13.avg_stall_time  2493.864543                       # Average number of cycles messages are stalled in this MB
system.ruby.network.int_link_buffers14.avg_buf_msgs     0.002560                       # Average number of messages in buffer
system.ruby.network.int_link_buffers14.avg_stall_time  2480.225291                       # Average number of cycles messages are stalled in this MB
system.ruby.network.int_link_buffers15.avg_buf_msgs     0.007062                       # Average number of messages in buffer
system.ruby.network.int_link_buffers15.avg_stall_time  2999.205480                       # Average number of cycles messages are stalled in this MB
system.ruby.network.routers3.port_buffers01.avg_buf_msgs     0.007257                       # Average number of messages in buffer
system.ruby.network.routers3.port_buffers01.avg_stall_time  2003.257530                       # Average number of cycles messages are stalled in this MB
system.ruby.network.routers3.port_buffers03.avg_buf_msgs     0.007433                       # Average number of messages in buffer
system.ruby.network.routers3.port_buffers03.avg_stall_time  2506.161941                       # Average number of cycles messages are stalled in this MB
system.ruby.network.routers3.port_buffers04.avg_buf_msgs     0.007062                       # Average number of messages in buffer
system.ruby.network.routers3.port_buffers04.avg_stall_time  1995.126947                       # Average number of cycles messages are stalled in this MB
system.ruby.network.routers3.port_buffers05.avg_buf_msgs     0.002560                       # Average number of messages in buffer
system.ruby.network.routers3.port_buffers05.avg_stall_time  1984.215545                       # Average number of cycles messages are stalled in this MB
system.ruby.network.routers3.port_buffers06.avg_buf_msgs     0.007062                       # Average number of messages in buffer
system.ruby.network.routers3.port_buffers06.avg_stall_time  2499.382040                       # Average number of cycles messages are stalled in this MB
system.ruby.network.routers3.pwrStateResidencyTicks::UNDEFINED     28319000                       # Cumulative time (in ticks) in various power states
system.ruby.network.routers3.percent_links_utilized     2.429170                      
system.ruby.network.routers3.msg_count.Control::0          811                      
system.ruby.network.routers3.msg_count.Response_Data::1          811                      
system.ruby.network.routers3.msg_count.Response_Control::2          145                      
system.ruby.network.routers3.msg_bytes.Control::0         6488                      
system.ruby.network.routers3.msg_bytes.Response_Data::1        58392                      
system.ruby.network.routers3.msg_bytes.Response_Control::2         1160                      
system.ruby.network.pwrStateResidencyTicks::UNDEFINED     28319000                       # Cumulative time (in ticks) in various power states
system.ruby.network.msg_count.Control            2433                      
system.ruby.network.msg_count.Response_Data         2433                      
system.ruby.network.msg_count.Response_Control          435                      
system.ruby.network.msg_byte.Control            19464                      
system.ruby.network.msg_byte.Response_Data       175176                      
system.ruby.network.msg_byte.Response_Control         3480                      
system.sys_port_proxy.pwrStateResidencyTicks::UNDEFINED     28319000                       # Cumulative time (in ticks) in various power states
system.ruby.network.routers0.throttle0.link_utilization     2.113422                      
system.ruby.network.routers0.throttle0.msg_count.Response_Data::1          266                      
system.ruby.network.routers0.throttle0.msg_bytes.Response_Data::1        19152                      
system.ruby.network.routers0.throttle1.link_utilization     1.152053                      
system.ruby.network.routers0.throttle1.msg_count.Response_Data::1          145                      
system.ruby.network.routers0.throttle1.msg_bytes.Response_Data::1        10440                      
system.ruby.network.routers0.throttle2.link_utilization     0.490837                      
system.ruby.network.routers0.throttle2.msg_count.Control::0          411                      
system.ruby.network.routers0.throttle2.msg_count.Response_Control::2          145                      
system.ruby.network.routers0.throttle2.msg_bytes.Control::0         3288                      
system.ruby.network.routers0.throttle2.msg_bytes.Response_Control::2         1160                      
system.ruby.network.routers1.throttle0.link_utilization     3.668915                      
system.ruby.network.routers1.throttle0.msg_count.Control::0          411                      
system.ruby.network.routers1.throttle0.msg_count.Response_Data::1          400                      
system.ruby.network.routers1.throttle0.msg_count.Response_Control::2          145                      
system.ruby.network.routers1.throttle0.msg_bytes.Control::0         3288                      
system.ruby.network.routers1.throttle0.msg_bytes.Response_Data::1        28800                      
system.ruby.network.routers1.throttle0.msg_bytes.Response_Control::2         1160                      
system.ruby.network.routers1.throttle1.link_utilization     3.618595                      
system.ruby.network.routers1.throttle1.msg_count.Control::0          400                      
system.ruby.network.routers1.throttle1.msg_count.Response_Data::1          411                      
system.ruby.network.routers1.throttle1.msg_bytes.Control::0         3200                      
system.ruby.network.routers1.throttle1.msg_bytes.Response_Data::1        29592                      
system.ruby.network.routers2.throttle0.link_utilization     0.353120                      
system.ruby.network.routers2.throttle0.msg_count.Control::0          400                      
system.ruby.network.routers2.throttle0.msg_bytes.Control::0         3200                      
system.ruby.network.routers2.throttle1.link_utilization     3.178078                      
system.ruby.network.routers2.throttle1.msg_count.Response_Data::1          400                      
system.ruby.network.routers2.throttle1.msg_bytes.Response_Data::1        28800                      
system.ruby.network.routers3.throttle0.link_utilization     3.265475                      
system.ruby.network.routers3.throttle0.msg_count.Response_Data::1          411                      
system.ruby.network.routers3.throttle0.msg_bytes.Response_Data::1        29592                      
system.ruby.network.routers3.throttle1.link_utilization     3.668915                      
system.ruby.network.routers3.throttle1.msg_count.Control::0          411                      
system.ruby.network.routers3.throttle1.msg_count.Response_Data::1          400                      
system.ruby.network.routers3.throttle1.msg_count.Response_Control::2          145                      
system.ruby.network.routers3.throttle1.msg_bytes.Control::0         3288                      
system.ruby.network.routers3.throttle1.msg_bytes.Response_Data::1        28800                      
system.ruby.network.routers3.throttle1.msg_bytes.Response_Control::2         1160                      
system.ruby.network.routers3.throttle2.link_utilization     0.353120                      
system.ruby.network.routers3.throttle2.msg_count.Control::0          400                      
system.ruby.network.routers3.throttle2.msg_bytes.Control::0         3200                      
system.ruby.delayVCHist.vnet_0::bucket_size            1                       # delay histogram for vnet_0
system.ruby.delayVCHist.vnet_0::max_bucket            9                       # delay histogram for vnet_0
system.ruby.delayVCHist.vnet_0::samples           556                       # delay histogram for vnet_0
system.ruby.delayVCHist.vnet_0::mean         0.035971                       # delay histogram for vnet_0
system.ruby.delayVCHist.vnet_0::stdev        0.493709                       # delay histogram for vnet_0
system.ruby.delayVCHist.vnet_0           |         552     99.28%     99.28% |           0      0.00%     99.28% |           2      0.36%     99.64% |           0      0.00%     99.64% |           0      0.00%     99.64% |           0      0.00%     99.64% |           0      0.00%     99.64% |           0      0.00%     99.64% |           2      0.36%    100.00% |           0      0.00%    100.00% # delay histogram for vnet_0
system.ruby.delayVCHist.vnet_0::total             556                       # delay histogram for vnet_0
system.ruby.delayVCHist.vnet_1::bucket_size            1                       # delay histogram for vnet_1
system.ruby.delayVCHist.vnet_1::max_bucket            9                       # delay histogram for vnet_1
system.ruby.delayVCHist.vnet_1::samples           811                       # delay histogram for vnet_1
system.ruby.delayVCHist.vnet_1           |         811    100.00%    100.00% |           0      0.00%    100.00% |           0      0.00%    100.00% |           0      0.00%    100.00% |           0      0.00%    100.00% |           0      0.00%    100.00% |           0      0.00%    100.00% |           0      0.00%    100.00% |           0      0.00%    100.00% |           0      0.00%    100.00% # delay histogram for vnet_1
system.ruby.delayVCHist.vnet_1::total             811                       # delay histogram for vnet_1
system.ruby.Directory_Controller.Fetch            400      0.00%      0.00%
system.ruby.Directory_Controller.Memory_Data          400      0.00%      0.00%
system.ruby.Directory_Controller.I.Fetch          400      0.00%      0.00%
system.ruby.Directory_Controller.IM.Memory_Data          400      0.00%      0.00%
system.ruby.L1Cache_Controller.Load      |           0      0.00%      0.00% |        1141    100.00%    100.00%
system.ruby.L1Cache_Controller.Load::total         1141                      
system.ruby.L1Cache_Controller.Ifetch    |         842    100.00%    100.00% |           0      0.00%    100.00%
system.ruby.L1Cache_Controller.Ifetch::total          842                      
system.ruby.L1Cache_Controller.Store     |           0      0.00%      0.00% |        1085    100.00%    100.00%
system.ruby.L1Cache_Controller.Store::total         1085                      
system.ruby.L1Cache_Controller.L1_Replacement |          37    100.00%    100.00% |           0      0.00%    100.00%
system.ruby.L1Cache_Controller.L1_Replacement::total           37                      
system.ruby.L1Cache_Controller.Data_Exclusive |           0      0.00%      0.00% |          63    100.00%    100.00%
system.ruby.L1Cache_Controller.Data_Exclusive::total           63                      
system.ruby.L1Cache_Controller.Data_all_Acks |         266     76.44%     76.44% |          82     23.56%    100.00%
system.ruby.L1Cache_Controller.Data_all_Acks::total          348                      
system.ruby.L1Cache_Controller.NP.Load   |           0      0.00%      0.00% |          63    100.00%    100.00%
system.ruby.L1Cache_Controller.NP.Load::total           63                      
system.ruby.L1Cache_Controller.NP.Ifetch |         266    100.00%    100.00% |           0      0.00%    100.00%
system.ruby.L1Cache_Controller.NP.Ifetch::total          266                      
system.ruby.L1Cache_Controller.NP.Store  |           0      0.00%      0.00% |          82    100.00%    100.00%
system.ruby.L1Cache_Controller.NP.Store::total           82                      
system.ruby.L1Cache_Controller.S.Ifetch  |         576    100.00%    100.00% |           0      0.00%    100.00%
system.ruby.L1Cache_Controller.S.Ifetch::total          576                      
system.ruby.L1Cache_Controller.S.L1_Replacement |          37    100.00%    100.00% |           0      0.00%    100.00%
system.ruby.L1Cache_Controller.S.L1_Replacement::total           37                      
system.ruby.L1Cache_Controller.E.Load    |           0      0.00%      0.00% |         298    100.00%    100.00%
system.ruby.L1Cache_Controller.E.Load::total          298                      
system.ruby.L1Cache_Controller.E.Store   |           0      0.00%      0.00% |          23    100.00%    100.00%
system.ruby.L1Cache_Controller.E.Store::total           23                      
system.ruby.L1Cache_Controller.M.Load    |           0      0.00%      0.00% |         780    100.00%    100.00%
system.ruby.L1Cache_Controller.M.Load::total          780                      
system.ruby.L1Cache_Controller.M.Store   |           0      0.00%      0.00% |         980    100.00%    100.00%
system.ruby.L1Cache_Controller.M.Store::total          980                      
system.ruby.L1Cache_Controller.IS.Data_Exclusive |           0      0.00%      0.00% |          63    100.00%    100.00%
system.ruby.L1Cache_Controller.IS.Data_Exclusive::total           63                      
system.ruby.L1Cache_Controller.IS.Data_all_Acks |         266    100.00%    100.00% |           0      0.00%    100.00%
system.ruby.L1Cache_Controller.IS.Data_all_Acks::total          266                      
system.ruby.L1Cache_Controller.IM.Data_all_Acks |           0      0.00%      0.00% |          82    100.00%    100.00%
system.ruby.L1Cache_Controller.IM.Data_all_Acks::total           82                      
system.ruby.L2Cache_Controller.L1_GET_INSTR          266      0.00%      0.00%
system.ruby.L2Cache_Controller.L1_GETS             63      0.00%      0.00%
system.ruby.L2Cache_Controller.L1_GETX             82      0.00%      0.00%
system.ruby.L2Cache_Controller.Mem_Data           400      0.00%      0.00%
system.ruby.L2Cache_Controller.Exclusive_Unblock          145      0.00%      0.00%
system.ruby.L2Cache_Controller.NP.L1_GET_INSTR          255      0.00%      0.00%
system.ruby.L2Cache_Controller.NP.L1_GETS           63      0.00%      0.00%
system.ruby.L2Cache_Controller.NP.L1_GETX           82      0.00%      0.00%
system.ruby.L2Cache_Controller.SS.L1_GET_INSTR           11      0.00%      0.00%
system.ruby.L2Cache_Controller.ISS.Mem_Data           63      0.00%      0.00%
system.ruby.L2Cache_Controller.IS.Mem_Data          255      0.00%      0.00%
system.ruby.L2Cache_Controller.IM.Mem_Data           82      0.00%      0.00%
system.ruby.L2Cache_Controller.MT_MB.Exclusive_Unblock          145      0.00%      0.00%

---------- End Simulation Statistics   ----------
