
---------- Begin Simulation Statistics ----------
sim_seconds                                  0.007599                       # Number of seconds simulated
sim_ticks                                  7598657500                       # Number of ticks simulated
final_tick                                20574591500                       # Number of ticks from beginning of simulation (restored from checkpoints and never reset)
sim_freq                                 1000000000000                       # Frequency of simulated ticks
coh_msg_count::GETX                             56811                       # number of coherence msgs arriving in cache controllers
coh_msg_count::UPGRADE                           5317                       # number of coherence msgs arriving in cache controllers
coh_msg_count::GETS                            287823                       # number of coherence msgs arriving in cache controllers
coh_msg_count::GET_INSTR                          386                       # number of coherence msgs arriving in cache controllers
coh_msg_count::INV                             103183                       # number of coherence msgs arriving in cache controllers
coh_msg_count::PUTX                             26837                       # number of coherence msgs arriving in cache controllers
coh_msg_count::GETV                           2810012                       # number of coherence msgs arriving in cache controllers
coh_msg_count::PUTV                            651895                       # number of coherence msgs arriving in cache controllers
coh_msg_count::ATOMIC                          653766                       # number of coherence msgs arriving in cache controllers
coh_msg_count::MEMORY_ACK                       96892                       # number of coherence msgs arriving in cache controllers
coh_msg_count::DATA                           2961777                       # number of coherence msgs arriving in cache controllers
coh_msg_count::DATA_EXCLUSIVE                   98708                       # number of coherence msgs arriving in cache controllers
coh_msg_count::MEMORY_DATA                     185815                       # number of coherence msgs arriving in cache controllers
coh_msg_count::ACK                             112812                       # number of coherence msgs arriving in cache controllers
coh_msg_count::WB_ACK                          678732                       # number of coherence msgs arriving in cache controllers
coh_msg_count::UNBLOCK                           6058                       # number of coherence msgs arriving in cache controllers
coh_msg_count::EXCLUSIVE_UNBLOCK               159526                       # number of coherence msgs arriving in cache controllers
coh_msg_count::ATOMIC_RESP                     653765                       # number of coherence msgs arriving in cache controllers
coh_msg_bytes::GETX                            454488                       # size of coherence msgs arriving in cache controllers
coh_msg_bytes::UPGRADE                          42536                       # size of coherence msgs arriving in cache controllers
coh_msg_bytes::GETS                           2302584                       # size of coherence msgs arriving in cache controllers
coh_msg_bytes::GET_INSTR                         3088                       # size of coherence msgs arriving in cache controllers
coh_msg_bytes::INV                             825464                       # size of coherence msgs arriving in cache controllers
coh_msg_bytes::PUTX                           1795112                       # size of coherence msgs arriving in cache controllers
coh_msg_bytes::GETV                          22480096                       # size of coherence msgs arriving in cache controllers
coh_msg_bytes::PUTV                          46936440                       # size of coherence msgs arriving in cache controllers
coh_msg_bytes::ATOMIC                        47071152                       # size of coherence msgs arriving in cache controllers
coh_msg_bytes::MEMORY_ACK                      775136                       # size of coherence msgs arriving in cache controllers
coh_msg_bytes::DATA                         213247944                       # size of coherence msgs arriving in cache controllers
coh_msg_bytes::DATA_EXCLUSIVE                 7106976                       # size of coherence msgs arriving in cache controllers
coh_msg_bytes::MEMORY_DATA                   13378680                       # size of coherence msgs arriving in cache controllers
coh_msg_bytes::ACK                             902496                       # size of coherence msgs arriving in cache controllers
coh_msg_bytes::WB_ACK                         5429856                       # size of coherence msgs arriving in cache controllers
coh_msg_bytes::UNBLOCK                          48464                       # size of coherence msgs arriving in cache controllers
coh_msg_bytes::EXCLUSIVE_UNBLOCK              1276208                       # size of coherence msgs arriving in cache controllers
coh_msg_bytes::ATOMIC_RESP                   47071080                       # size of coherence msgs arriving in cache controllers
host_inst_rate                                  41370                       # Simulator instruction rate (inst/s)
host_op_rate                                    41373                       # Simulator op (including micro ops) rate (op/s)
host_tick_rate                                1487216                       # Simulator tick rate (ticks/s)
host_mem_usage                                6883920                       # Number of bytes of host memory used
host_seconds                                  5109.32                       # Real time elapsed on the host
sim_insts                                   211374403                       # Number of instructions simulated
sim_ops                                     211388318                       # Number of ops (including micro ops) simulated
system.voltage_domain.voltage                       1                       # Voltage in Volts
system.clk_domain.clock                          1000                       # Clock period in ticks
system.mem_ctrls0.pwrStateResidencyTicks::UNDEFINED  20574591500                       # Cumulative time (in ticks) in various power states
system.mem_ctrls0.bytes_read::.cpu05.inst            4                       # Number of bytes read from this memory
system.mem_ctrls0.bytes_read::.cpu08.inst            4                       # Number of bytes read from this memory
system.mem_ctrls0.bytes_read::.cpu21.inst            4                       # Number of bytes read from this memory
system.mem_ctrls0.bytes_read::.cpu40.inst            4                       # Number of bytes read from this memory
system.mem_ctrls0.bytes_read::.ruby.dir_cntrl0       588032                       # Number of bytes read from this memory
system.mem_ctrls0.bytes_read::total            588048                       # Number of bytes read from this memory
system.mem_ctrls0.bytes_inst_read::.cpu05.inst            4                       # Number of instructions bytes read from this memory
system.mem_ctrls0.bytes_inst_read::.cpu08.inst            4                       # Number of instructions bytes read from this memory
system.mem_ctrls0.bytes_inst_read::.cpu21.inst            4                       # Number of instructions bytes read from this memory
system.mem_ctrls0.bytes_inst_read::.cpu40.inst            4                       # Number of instructions bytes read from this memory
system.mem_ctrls0.bytes_inst_read::total           16                       # Number of instructions bytes read from this memory
system.mem_ctrls0.bytes_written::.ruby.dir_cntrl0       189440                       # Number of bytes written to this memory
system.mem_ctrls0.bytes_written::total         189440                       # Number of bytes written to this memory
system.mem_ctrls0.num_reads::.cpu05.inst            1                       # Number of read requests responded to by this memory
system.mem_ctrls0.num_reads::.cpu08.inst            1                       # Number of read requests responded to by this memory
system.mem_ctrls0.num_reads::.cpu21.inst            1                       # Number of read requests responded to by this memory
system.mem_ctrls0.num_reads::.cpu40.inst            1                       # Number of read requests responded to by this memory
system.mem_ctrls0.num_reads::.ruby.dir_cntrl0         9188                       # Number of read requests responded to by this memory
system.mem_ctrls0.num_reads::total               9192                       # Number of read requests responded to by this memory
system.mem_ctrls0.num_writes::.ruby.dir_cntrl0         2960                       # Number of write requests responded to by this memory
system.mem_ctrls0.num_writes::total              2960                       # Number of write requests responded to by this memory
system.mem_ctrls0.bw_read::.cpu05.inst            526                       # Total read bandwidth from this memory (bytes/s)
system.mem_ctrls0.bw_read::.cpu08.inst            526                       # Total read bandwidth from this memory (bytes/s)
system.mem_ctrls0.bw_read::.cpu21.inst            526                       # Total read bandwidth from this memory (bytes/s)
system.mem_ctrls0.bw_read::.cpu40.inst            526                       # Total read bandwidth from this memory (bytes/s)
system.mem_ctrls0.bw_read::.ruby.dir_cntrl0     77386301                       # Total read bandwidth from this memory (bytes/s)
system.mem_ctrls0.bw_read::total             77388407                       # Total read bandwidth from this memory (bytes/s)
system.mem_ctrls0.bw_inst_read::.cpu05.inst          526                       # Instruction read bandwidth from this memory (bytes/s)
system.mem_ctrls0.bw_inst_read::.cpu08.inst          526                       # Instruction read bandwidth from this memory (bytes/s)
system.mem_ctrls0.bw_inst_read::.cpu21.inst          526                       # Instruction read bandwidth from this memory (bytes/s)
system.mem_ctrls0.bw_inst_read::.cpu40.inst          526                       # Instruction read bandwidth from this memory (bytes/s)
system.mem_ctrls0.bw_inst_read::total            2106                       # Instruction read bandwidth from this memory (bytes/s)
system.mem_ctrls0.bw_write::.ruby.dir_cntrl0     24930720                       # Write bandwidth from this memory (bytes/s)
system.mem_ctrls0.bw_write::total            24930720                       # Write bandwidth from this memory (bytes/s)
system.mem_ctrls0.bw_total::.cpu05.inst           526                       # Total bandwidth to/from this memory (bytes/s)
system.mem_ctrls0.bw_total::.cpu08.inst           526                       # Total bandwidth to/from this memory (bytes/s)
system.mem_ctrls0.bw_total::.cpu21.inst           526                       # Total bandwidth to/from this memory (bytes/s)
system.mem_ctrls0.bw_total::.cpu40.inst           526                       # Total bandwidth to/from this memory (bytes/s)
system.mem_ctrls0.bw_total::.ruby.dir_cntrl0    102317021                       # Total bandwidth to/from this memory (bytes/s)
system.mem_ctrls0.bw_total::total           102319127                       # Total bandwidth to/from this memory (bytes/s)
system.mem_ctrls1.pwrStateResidencyTicks::UNDEFINED  20574591500                       # Cumulative time (in ticks) in various power states
system.mem_ctrls1.bytes_read::.ruby.dir_cntrl1      1373632                       # Number of bytes read from this memory
system.mem_ctrls1.bytes_read::total           1373632                       # Number of bytes read from this memory
system.mem_ctrls1.bytes_written::.ruby.dir_cntrl1       634304                       # Number of bytes written to this memory
system.mem_ctrls1.bytes_written::total         634304                       # Number of bytes written to this memory
system.mem_ctrls1.num_reads::.ruby.dir_cntrl1        21463                       # Number of read requests responded to by this memory
system.mem_ctrls1.num_reads::total              21463                       # Number of read requests responded to by this memory
system.mem_ctrls1.num_writes::.ruby.dir_cntrl1         9911                       # Number of write requests responded to by this memory
system.mem_ctrls1.num_writes::total              9911                       # Number of write requests responded to by this memory
system.mem_ctrls1.bw_read::.ruby.dir_cntrl1    180772985                       # Total read bandwidth from this memory (bytes/s)
system.mem_ctrls1.bw_read::total            180772985                       # Total read bandwidth from this memory (bytes/s)
system.mem_ctrls1.bw_write::.ruby.dir_cntrl1     83475798                       # Write bandwidth from this memory (bytes/s)
system.mem_ctrls1.bw_write::total            83475798                       # Write bandwidth from this memory (bytes/s)
system.mem_ctrls1.bw_total::.ruby.dir_cntrl1    264248783                       # Total bandwidth to/from this memory (bytes/s)
system.mem_ctrls1.bw_total::total           264248783                       # Total bandwidth to/from this memory (bytes/s)
system.mem_ctrls2.pwrStateResidencyTicks::UNDEFINED  20574591500                       # Cumulative time (in ticks) in various power states
system.mem_ctrls2.bytes_read::.ruby.dir_cntrl2      1418624                       # Number of bytes read from this memory
system.mem_ctrls2.bytes_read::total           1418624                       # Number of bytes read from this memory
system.mem_ctrls2.bytes_written::.ruby.dir_cntrl2       728576                       # Number of bytes written to this memory
system.mem_ctrls2.bytes_written::total         728576                       # Number of bytes written to this memory
system.mem_ctrls2.num_reads::.ruby.dir_cntrl2        22166                       # Number of read requests responded to by this memory
system.mem_ctrls2.num_reads::total              22166                       # Number of read requests responded to by this memory
system.mem_ctrls2.num_writes::.ruby.dir_cntrl2        11384                       # Number of write requests responded to by this memory
system.mem_ctrls2.num_writes::total             11384                       # Number of write requests responded to by this memory
system.mem_ctrls2.bw_read::.ruby.dir_cntrl2    186694031                       # Total read bandwidth from this memory (bytes/s)
system.mem_ctrls2.bw_read::total            186694031                       # Total read bandwidth from this memory (bytes/s)
system.mem_ctrls2.bw_write::.ruby.dir_cntrl2     95882200                       # Write bandwidth from this memory (bytes/s)
system.mem_ctrls2.bw_write::total            95882200                       # Write bandwidth from this memory (bytes/s)
system.mem_ctrls2.bw_total::.ruby.dir_cntrl2    282576231                       # Total bandwidth to/from this memory (bytes/s)
system.mem_ctrls2.bw_total::total           282576231                       # Total bandwidth to/from this memory (bytes/s)
system.mem_ctrls3.pwrStateResidencyTicks::UNDEFINED  20574591500                       # Cumulative time (in ticks) in various power states
system.mem_ctrls3.bytes_read::.ruby.dir_cntrl3      1902144                       # Number of bytes read from this memory
system.mem_ctrls3.bytes_read::total           1902144                       # Number of bytes read from this memory
system.mem_ctrls3.bytes_written::.ruby.dir_cntrl3       789952                       # Number of bytes written to this memory
system.mem_ctrls3.bytes_written::total         789952                       # Number of bytes written to this memory
system.mem_ctrls3.num_reads::.ruby.dir_cntrl3        29721                       # Number of read requests responded to by this memory
system.mem_ctrls3.num_reads::total              29721                       # Number of read requests responded to by this memory
system.mem_ctrls3.num_writes::.ruby.dir_cntrl3        12343                       # Number of write requests responded to by this memory
system.mem_ctrls3.num_writes::total             12343                       # Number of write requests responded to by this memory
system.mem_ctrls3.bw_read::.ruby.dir_cntrl3    250326324                       # Total read bandwidth from this memory (bytes/s)
system.mem_ctrls3.bw_read::total            250326324                       # Total read bandwidth from this memory (bytes/s)
system.mem_ctrls3.bw_write::.ruby.dir_cntrl3    103959417                       # Write bandwidth from this memory (bytes/s)
system.mem_ctrls3.bw_write::total           103959417                       # Write bandwidth from this memory (bytes/s)
system.mem_ctrls3.bw_total::.ruby.dir_cntrl3    354285741                       # Total bandwidth to/from this memory (bytes/s)
system.mem_ctrls3.bw_total::total           354285741                       # Total bandwidth to/from this memory (bytes/s)
system.mem_ctrls4.pwrStateResidencyTicks::UNDEFINED  20574591500                       # Cumulative time (in ticks) in various power states
system.mem_ctrls4.bytes_read::.cpu22.data            8                       # Number of bytes read from this memory
system.mem_ctrls4.bytes_read::.ruby.dir_cntrl4       916096                       # Number of bytes read from this memory
system.mem_ctrls4.bytes_read::total            916104                       # Number of bytes read from this memory
system.mem_ctrls4.bytes_written::.ruby.dir_cntrl4       321088                       # Number of bytes written to this memory
system.mem_ctrls4.bytes_written::total         321088                       # Number of bytes written to this memory
system.mem_ctrls4.num_reads::.cpu22.data            1                       # Number of read requests responded to by this memory
system.mem_ctrls4.num_reads::.ruby.dir_cntrl4        14314                       # Number of read requests responded to by this memory
system.mem_ctrls4.num_reads::total              14315                       # Number of read requests responded to by this memory
system.mem_ctrls4.num_writes::.ruby.dir_cntrl4         5017                       # Number of write requests responded to by this memory
system.mem_ctrls4.num_writes::total              5017                       # Number of write requests responded to by this memory
system.mem_ctrls4.bw_read::.cpu22.data           1053                       # Total read bandwidth from this memory (bytes/s)
system.mem_ctrls4.bw_read::.ruby.dir_cntrl4    120560244                       # Total read bandwidth from this memory (bytes/s)
system.mem_ctrls4.bw_read::total            120561297                       # Total read bandwidth from this memory (bytes/s)
system.mem_ctrls4.bw_write::.ruby.dir_cntrl4     42255885                       # Write bandwidth from this memory (bytes/s)
system.mem_ctrls4.bw_write::total            42255885                       # Write bandwidth from this memory (bytes/s)
system.mem_ctrls4.bw_total::.cpu22.data          1053                       # Total bandwidth to/from this memory (bytes/s)
system.mem_ctrls4.bw_total::.ruby.dir_cntrl4    162816129                       # Total bandwidth to/from this memory (bytes/s)
system.mem_ctrls4.bw_total::total           162817182                       # Total bandwidth to/from this memory (bytes/s)
system.mem_ctrls5.pwrStateResidencyTicks::UNDEFINED  20574591500                       # Cumulative time (in ticks) in various power states
system.mem_ctrls5.bytes_read::.ruby.dir_cntrl5       760128                       # Number of bytes read from this memory
system.mem_ctrls5.bytes_read::total            760128                       # Number of bytes read from this memory
system.mem_ctrls5.bytes_written::.ruby.dir_cntrl5       266752                       # Number of bytes written to this memory
system.mem_ctrls5.bytes_written::total         266752                       # Number of bytes written to this memory
system.mem_ctrls5.num_reads::.ruby.dir_cntrl5        11877                       # Number of read requests responded to by this memory
system.mem_ctrls5.num_reads::total              11877                       # Number of read requests responded to by this memory
system.mem_ctrls5.num_writes::.ruby.dir_cntrl5         4168                       # Number of write requests responded to by this memory
system.mem_ctrls5.num_writes::total              4168                       # Number of write requests responded to by this memory
system.mem_ctrls5.bw_read::.ruby.dir_cntrl5    100034513                       # Total read bandwidth from this memory (bytes/s)
system.mem_ctrls5.bw_read::total            100034513                       # Total read bandwidth from this memory (bytes/s)
system.mem_ctrls5.bw_write::.ruby.dir_cntrl5     35105149                       # Write bandwidth from this memory (bytes/s)
system.mem_ctrls5.bw_write::total            35105149                       # Write bandwidth from this memory (bytes/s)
system.mem_ctrls5.bw_total::.ruby.dir_cntrl5    135139661                       # Total bandwidth to/from this memory (bytes/s)
system.mem_ctrls5.bw_total::total           135139661                       # Total bandwidth to/from this memory (bytes/s)
system.mem_ctrls6.pwrStateResidencyTicks::UNDEFINED  20574591500                       # Cumulative time (in ticks) in various power states
system.mem_ctrls6.bytes_read::.cpu01.inst            4                       # Number of bytes read from this memory
system.mem_ctrls6.bytes_read::.cpu11.inst            4                       # Number of bytes read from this memory
system.mem_ctrls6.bytes_read::.cpu14.inst            4                       # Number of bytes read from this memory
system.mem_ctrls6.bytes_read::.cpu24.inst            4                       # Number of bytes read from this memory
system.mem_ctrls6.bytes_read::.cpu27.inst            4                       # Number of bytes read from this memory
system.mem_ctrls6.bytes_read::.cpu35.inst            4                       # Number of bytes read from this memory
system.mem_ctrls6.bytes_read::.cpu38.inst            4                       # Number of bytes read from this memory
system.mem_ctrls6.bytes_read::.cpu46.inst            4                       # Number of bytes read from this memory
system.mem_ctrls6.bytes_read::.cpu49.inst            4                       # Number of bytes read from this memory
system.mem_ctrls6.bytes_read::.cpu51.inst            4                       # Number of bytes read from this memory
system.mem_ctrls6.bytes_read::.ruby.dir_cntrl6       817152                       # Number of bytes read from this memory
system.mem_ctrls6.bytes_read::total            817192                       # Number of bytes read from this memory
system.mem_ctrls6.bytes_inst_read::.cpu01.inst            4                       # Number of instructions bytes read from this memory
system.mem_ctrls6.bytes_inst_read::.cpu11.inst            4                       # Number of instructions bytes read from this memory
system.mem_ctrls6.bytes_inst_read::.cpu14.inst            4                       # Number of instructions bytes read from this memory
system.mem_ctrls6.bytes_inst_read::.cpu24.inst            4                       # Number of instructions bytes read from this memory
system.mem_ctrls6.bytes_inst_read::.cpu27.inst            4                       # Number of instructions bytes read from this memory
system.mem_ctrls6.bytes_inst_read::.cpu35.inst            4                       # Number of instructions bytes read from this memory
system.mem_ctrls6.bytes_inst_read::.cpu38.inst            4                       # Number of instructions bytes read from this memory
system.mem_ctrls6.bytes_inst_read::.cpu46.inst            4                       # Number of instructions bytes read from this memory
system.mem_ctrls6.bytes_inst_read::.cpu49.inst            4                       # Number of instructions bytes read from this memory
system.mem_ctrls6.bytes_inst_read::.cpu51.inst            4                       # Number of instructions bytes read from this memory
system.mem_ctrls6.bytes_inst_read::total           40                       # Number of instructions bytes read from this memory
system.mem_ctrls6.bytes_written::.ruby.dir_cntrl6       464064                       # Number of bytes written to this memory
system.mem_ctrls6.bytes_written::total         464064                       # Number of bytes written to this memory
system.mem_ctrls6.num_reads::.cpu01.inst            1                       # Number of read requests responded to by this memory
system.mem_ctrls6.num_reads::.cpu11.inst            1                       # Number of read requests responded to by this memory
system.mem_ctrls6.num_reads::.cpu14.inst            1                       # Number of read requests responded to by this memory
system.mem_ctrls6.num_reads::.cpu24.inst            1                       # Number of read requests responded to by this memory
system.mem_ctrls6.num_reads::.cpu27.inst            1                       # Number of read requests responded to by this memory
system.mem_ctrls6.num_reads::.cpu35.inst            1                       # Number of read requests responded to by this memory
system.mem_ctrls6.num_reads::.cpu38.inst            1                       # Number of read requests responded to by this memory
system.mem_ctrls6.num_reads::.cpu46.inst            1                       # Number of read requests responded to by this memory
system.mem_ctrls6.num_reads::.cpu49.inst            1                       # Number of read requests responded to by this memory
system.mem_ctrls6.num_reads::.cpu51.inst            1                       # Number of read requests responded to by this memory
system.mem_ctrls6.num_reads::.ruby.dir_cntrl6        12768                       # Number of read requests responded to by this memory
system.mem_ctrls6.num_reads::total              12778                       # Number of read requests responded to by this memory
system.mem_ctrls6.num_writes::.ruby.dir_cntrl6         7251                       # Number of write requests responded to by this memory
system.mem_ctrls6.num_writes::total              7251                       # Number of write requests responded to by this memory
system.mem_ctrls6.bw_read::.cpu01.inst            526                       # Total read bandwidth from this memory (bytes/s)
system.mem_ctrls6.bw_read::.cpu11.inst            526                       # Total read bandwidth from this memory (bytes/s)
system.mem_ctrls6.bw_read::.cpu14.inst            526                       # Total read bandwidth from this memory (bytes/s)
system.mem_ctrls6.bw_read::.cpu24.inst            526                       # Total read bandwidth from this memory (bytes/s)
system.mem_ctrls6.bw_read::.cpu27.inst            526                       # Total read bandwidth from this memory (bytes/s)
system.mem_ctrls6.bw_read::.cpu35.inst            526                       # Total read bandwidth from this memory (bytes/s)
system.mem_ctrls6.bw_read::.cpu38.inst            526                       # Total read bandwidth from this memory (bytes/s)
system.mem_ctrls6.bw_read::.cpu46.inst            526                       # Total read bandwidth from this memory (bytes/s)
system.mem_ctrls6.bw_read::.cpu49.inst            526                       # Total read bandwidth from this memory (bytes/s)
system.mem_ctrls6.bw_read::.cpu51.inst            526                       # Total read bandwidth from this memory (bytes/s)
system.mem_ctrls6.bw_read::.ruby.dir_cntrl6    107538996                       # Total read bandwidth from this memory (bytes/s)
system.mem_ctrls6.bw_read::total            107544260                       # Total read bandwidth from this memory (bytes/s)
system.mem_ctrls6.bw_inst_read::.cpu01.inst          526                       # Instruction read bandwidth from this memory (bytes/s)
system.mem_ctrls6.bw_inst_read::.cpu11.inst          526                       # Instruction read bandwidth from this memory (bytes/s)
system.mem_ctrls6.bw_inst_read::.cpu14.inst          526                       # Instruction read bandwidth from this memory (bytes/s)
system.mem_ctrls6.bw_inst_read::.cpu24.inst          526                       # Instruction read bandwidth from this memory (bytes/s)
system.mem_ctrls6.bw_inst_read::.cpu27.inst          526                       # Instruction read bandwidth from this memory (bytes/s)
system.mem_ctrls6.bw_inst_read::.cpu35.inst          526                       # Instruction read bandwidth from this memory (bytes/s)
system.mem_ctrls6.bw_inst_read::.cpu38.inst          526                       # Instruction read bandwidth from this memory (bytes/s)
system.mem_ctrls6.bw_inst_read::.cpu46.inst          526                       # Instruction read bandwidth from this memory (bytes/s)
system.mem_ctrls6.bw_inst_read::.cpu49.inst          526                       # Instruction read bandwidth from this memory (bytes/s)
system.mem_ctrls6.bw_inst_read::.cpu51.inst          526                       # Instruction read bandwidth from this memory (bytes/s)
system.mem_ctrls6.bw_inst_read::total            5264                       # Instruction read bandwidth from this memory (bytes/s)
system.mem_ctrls6.bw_write::.ruby.dir_cntrl6     61071841                       # Write bandwidth from this memory (bytes/s)
system.mem_ctrls6.bw_write::total            61071841                       # Write bandwidth from this memory (bytes/s)
system.mem_ctrls6.bw_total::.cpu01.inst           526                       # Total bandwidth to/from this memory (bytes/s)
system.mem_ctrls6.bw_total::.cpu11.inst           526                       # Total bandwidth to/from this memory (bytes/s)
system.mem_ctrls6.bw_total::.cpu14.inst           526                       # Total bandwidth to/from this memory (bytes/s)
system.mem_ctrls6.bw_total::.cpu24.inst           526                       # Total bandwidth to/from this memory (bytes/s)
system.mem_ctrls6.bw_total::.cpu27.inst           526                       # Total bandwidth to/from this memory (bytes/s)
system.mem_ctrls6.bw_total::.cpu35.inst           526                       # Total bandwidth to/from this memory (bytes/s)
system.mem_ctrls6.bw_total::.cpu38.inst           526                       # Total bandwidth to/from this memory (bytes/s)
system.mem_ctrls6.bw_total::.cpu46.inst           526                       # Total bandwidth to/from this memory (bytes/s)
system.mem_ctrls6.bw_total::.cpu49.inst           526                       # Total bandwidth to/from this memory (bytes/s)
system.mem_ctrls6.bw_total::.cpu51.inst           526                       # Total bandwidth to/from this memory (bytes/s)
system.mem_ctrls6.bw_total::.ruby.dir_cntrl6    168610837                       # Total bandwidth to/from this memory (bytes/s)
system.mem_ctrls6.bw_total::total           168616101                       # Total bandwidth to/from this memory (bytes/s)
system.mem_ctrls7.pwrStateResidencyTicks::UNDEFINED  20574591500                       # Cumulative time (in ticks) in various power states
system.mem_ctrls7.bytes_read::.cpu02.inst            4                       # Number of bytes read from this memory
system.mem_ctrls7.bytes_read::.cpu22.inst            4                       # Number of bytes read from this memory
system.mem_ctrls7.bytes_read::.cpu50.inst            4                       # Number of bytes read from this memory
system.mem_ctrls7.bytes_read::.cpu62.inst            4                       # Number of bytes read from this memory
system.mem_ctrls7.bytes_read::.ruby.dir_cntrl7       562560                       # Number of bytes read from this memory
system.mem_ctrls7.bytes_read::total            562576                       # Number of bytes read from this memory
system.mem_ctrls7.bytes_inst_read::.cpu02.inst            4                       # Number of instructions bytes read from this memory
system.mem_ctrls7.bytes_inst_read::.cpu22.inst            4                       # Number of instructions bytes read from this memory
system.mem_ctrls7.bytes_inst_read::.cpu50.inst            4                       # Number of instructions bytes read from this memory
system.mem_ctrls7.bytes_inst_read::.cpu62.inst            4                       # Number of instructions bytes read from this memory
system.mem_ctrls7.bytes_inst_read::total           16                       # Number of instructions bytes read from this memory
system.mem_ctrls7.bytes_written::.ruby.dir_cntrl7       159616                       # Number of bytes written to this memory
system.mem_ctrls7.bytes_written::total         159616                       # Number of bytes written to this memory
system.mem_ctrls7.num_reads::.cpu02.inst            1                       # Number of read requests responded to by this memory
system.mem_ctrls7.num_reads::.cpu22.inst            1                       # Number of read requests responded to by this memory
system.mem_ctrls7.num_reads::.cpu50.inst            1                       # Number of read requests responded to by this memory
system.mem_ctrls7.num_reads::.cpu62.inst            1                       # Number of read requests responded to by this memory
system.mem_ctrls7.num_reads::.ruby.dir_cntrl7         8790                       # Number of read requests responded to by this memory
system.mem_ctrls7.num_reads::total               8794                       # Number of read requests responded to by this memory
system.mem_ctrls7.num_writes::.ruby.dir_cntrl7         2494                       # Number of write requests responded to by this memory
system.mem_ctrls7.num_writes::total              2494                       # Number of write requests responded to by this memory
system.mem_ctrls7.bw_read::.cpu02.inst            526                       # Total read bandwidth from this memory (bytes/s)
system.mem_ctrls7.bw_read::.cpu22.inst            526                       # Total read bandwidth from this memory (bytes/s)
system.mem_ctrls7.bw_read::.cpu50.inst            526                       # Total read bandwidth from this memory (bytes/s)
system.mem_ctrls7.bw_read::.cpu62.inst            526                       # Total read bandwidth from this memory (bytes/s)
system.mem_ctrls7.bw_read::.ruby.dir_cntrl7     74034130                       # Total read bandwidth from this memory (bytes/s)
system.mem_ctrls7.bw_read::total             74036236                       # Total read bandwidth from this memory (bytes/s)
system.mem_ctrls7.bw_inst_read::.cpu02.inst          526                       # Instruction read bandwidth from this memory (bytes/s)
system.mem_ctrls7.bw_inst_read::.cpu22.inst          526                       # Instruction read bandwidth from this memory (bytes/s)
system.mem_ctrls7.bw_inst_read::.cpu50.inst          526                       # Instruction read bandwidth from this memory (bytes/s)
system.mem_ctrls7.bw_inst_read::.cpu62.inst          526                       # Instruction read bandwidth from this memory (bytes/s)
system.mem_ctrls7.bw_inst_read::total            2106                       # Instruction read bandwidth from this memory (bytes/s)
system.mem_ctrls7.bw_write::.ruby.dir_cntrl7     21005816                       # Write bandwidth from this memory (bytes/s)
system.mem_ctrls7.bw_write::total            21005816                       # Write bandwidth from this memory (bytes/s)
system.mem_ctrls7.bw_total::.cpu02.inst           526                       # Total bandwidth to/from this memory (bytes/s)
system.mem_ctrls7.bw_total::.cpu22.inst           526                       # Total bandwidth to/from this memory (bytes/s)
system.mem_ctrls7.bw_total::.cpu50.inst           526                       # Total bandwidth to/from this memory (bytes/s)
system.mem_ctrls7.bw_total::.cpu62.inst           526                       # Total bandwidth to/from this memory (bytes/s)
system.mem_ctrls7.bw_total::.ruby.dir_cntrl7     95039946                       # Total bandwidth to/from this memory (bytes/s)
system.mem_ctrls7.bw_total::total            95042052                       # Total bandwidth to/from this memory (bytes/s)
system.pwrStateResidencyTicks::UNDEFINED  20574591500                       # Cumulative time (in ticks) in various power states
system.adapters00.cpuReqBuffer.avg_buf_msgs     0.002250                       # Average number of messages in buffer
system.adapters00.cpuReqBuffer.avg_stall_time   997.504954                       # Average number of cycles messages are stalled in this MB
system.adapters00.cpuRespBuffer.avg_buf_msgs     0.001657                       # Average number of messages in buffer
system.adapters00.cpuRespBuffer.avg_stall_time   999.840630                       # Average number of cycles messages are stalled in this MB
system.adapters00.networkReqBuffer.avg_buf_msgs     0.001575                       # Average number of messages in buffer
system.adapters00.networkReqBuffer.avg_stall_time 16681.792738                       # Average number of cycles messages are stalled in this MB
system.adapters00.networkRespBuffer.avg_buf_msgs     0.001792                       # Average number of messages in buffer
system.adapters00.networkRespBuffer.avg_stall_time 17214.030174                       # Average number of cycles messages are stalled in this MB
system.ruby_am.pwrStateResidencyTicks::UNDEFINED  20574591500                       # Cumulative time (in ticks) in various power states
system.adapters00.pwrStateResidencyTicks::UNDEFINED  20574591500                       # Cumulative time (in ticks) in various power states
system.adapters01.cpuReqBuffer.avg_buf_msgs     0.003036                       # Average number of messages in buffer
system.adapters01.cpuReqBuffer.avg_stall_time   999.984076                       # Average number of cycles messages are stalled in this MB
system.adapters01.cpuRespBuffer.avg_buf_msgs     0.001544                       # Average number of messages in buffer
system.adapters01.cpuRespBuffer.avg_stall_time   999.968547                       # Average number of cycles messages are stalled in this MB
system.adapters01.networkReqBuffer.avg_buf_msgs     0.001517                       # Average number of messages in buffer
system.adapters01.networkReqBuffer.avg_stall_time 15332.020097                       # Average number of cycles messages are stalled in this MB
system.adapters01.networkRespBuffer.avg_buf_msgs     0.002428                       # Average number of messages in buffer
system.adapters01.networkRespBuffer.avg_stall_time 15326.286585                       # Average number of cycles messages are stalled in this MB
system.adapters01.pwrStateResidencyTicks::UNDEFINED  20574591500                       # Cumulative time (in ticks) in various power states
system.adapters02.cpuReqBuffer.avg_buf_msgs     0.003313                       # Average number of messages in buffer
system.adapters02.cpuReqBuffer.avg_stall_time   999.945122                       # Average number of cycles messages are stalled in this MB
system.adapters02.cpuRespBuffer.avg_buf_msgs     0.001354                       # Average number of messages in buffer
system.adapters02.cpuRespBuffer.avg_stall_time   999.945253                       # Average number of cycles messages are stalled in this MB
system.adapters02.networkReqBuffer.avg_buf_msgs     0.001337                       # Average number of messages in buffer
system.adapters02.networkReqBuffer.avg_stall_time 14327.511998                       # Average number of cycles messages are stalled in this MB
system.adapters02.networkRespBuffer.avg_buf_msgs     0.002655                       # Average number of messages in buffer
system.adapters02.networkRespBuffer.avg_stall_time 14143.712820                       # Average number of cycles messages are stalled in this MB
system.adapters02.pwrStateResidencyTicks::UNDEFINED  20574591500                       # Cumulative time (in ticks) in various power states
system.adapters03.cpuReqBuffer.avg_buf_msgs     0.003275                       # Average number of messages in buffer
system.adapters03.cpuReqBuffer.avg_stall_time   999.973153                       # Average number of cycles messages are stalled in this MB
system.adapters03.cpuRespBuffer.avg_buf_msgs     0.001308                       # Average number of messages in buffer
system.adapters03.cpuRespBuffer.avg_stall_time   999.925382                       # Average number of cycles messages are stalled in this MB
system.adapters03.networkReqBuffer.avg_buf_msgs     0.001292                       # Average number of messages in buffer
system.adapters03.networkReqBuffer.avg_stall_time 13666.320334                       # Average number of cycles messages are stalled in this MB
system.adapters03.networkRespBuffer.avg_buf_msgs     0.002626                       # Average number of messages in buffer
system.adapters03.networkRespBuffer.avg_stall_time 13762.871731                       # Average number of cycles messages are stalled in this MB
system.adapters03.pwrStateResidencyTicks::UNDEFINED  20574591500                       # Cumulative time (in ticks) in various power states
system.adapters04.cpuReqBuffer.avg_buf_msgs     0.001812                       # Average number of messages in buffer
system.adapters04.cpuReqBuffer.avg_stall_time   999.984734                       # Average number of cycles messages are stalled in this MB
system.adapters04.cpuRespBuffer.avg_buf_msgs     0.001690                       # Average number of messages in buffer
system.adapters04.cpuRespBuffer.avg_stall_time   999.814309                       # Average number of cycles messages are stalled in this MB
system.adapters04.networkReqBuffer.avg_buf_msgs     0.001664                       # Average number of messages in buffer
system.adapters04.networkReqBuffer.avg_stall_time 13869.682178                       # Average number of cycles messages are stalled in this MB
system.adapters04.networkRespBuffer.avg_buf_msgs     0.001451                       # Average number of messages in buffer
system.adapters04.networkRespBuffer.avg_stall_time 13937.862774                       # Average number of cycles messages are stalled in this MB
system.adapters04.pwrStateResidencyTicks::UNDEFINED  20574591500                       # Cumulative time (in ticks) in various power states
system.adapters05.cpuReqBuffer.avg_buf_msgs     0.001762                       # Average number of messages in buffer
system.adapters05.cpuReqBuffer.avg_stall_time   999.961441                       # Average number of cycles messages are stalled in this MB
system.adapters05.cpuRespBuffer.avg_buf_msgs     0.001407                       # Average number of messages in buffer
system.adapters05.cpuRespBuffer.avg_stall_time   999.963678                       # Average number of cycles messages are stalled in this MB
system.adapters05.networkReqBuffer.avg_buf_msgs     0.001367                       # Average number of messages in buffer
system.adapters05.networkReqBuffer.avg_stall_time 14385.255225                       # Average number of cycles messages are stalled in this MB
system.adapters05.networkRespBuffer.avg_buf_msgs     0.001411                       # Average number of messages in buffer
system.adapters05.networkRespBuffer.avg_stall_time 14433.709046                       # Average number of cycles messages are stalled in this MB
system.adapters05.pwrStateResidencyTicks::UNDEFINED  20574591500                       # Cumulative time (in ticks) in various power states
system.adapters06.cpuReqBuffer.avg_buf_msgs     0.001802                       # Average number of messages in buffer
system.adapters06.cpuReqBuffer.avg_stall_time   999.825759                       # Average number of cycles messages are stalled in this MB
system.adapters06.cpuRespBuffer.avg_buf_msgs     0.001489                       # Average number of messages in buffer
system.adapters06.cpuRespBuffer.avg_stall_time   999.937752                       # Average number of cycles messages are stalled in this MB
system.adapters06.networkReqBuffer.avg_buf_msgs     0.001454                       # Average number of messages in buffer
system.adapters06.networkReqBuffer.avg_stall_time 15322.162699                       # Average number of cycles messages are stalled in this MB
system.adapters06.networkRespBuffer.avg_buf_msgs     0.001439                       # Average number of messages in buffer
system.adapters06.networkRespBuffer.avg_stall_time 15362.619318                       # Average number of cycles messages are stalled in this MB
system.adapters06.pwrStateResidencyTicks::UNDEFINED  20574591500                       # Cumulative time (in ticks) in various power states
system.adapters07.cpuReqBuffer.avg_buf_msgs     0.001733                       # Average number of messages in buffer
system.adapters07.cpuReqBuffer.avg_stall_time   999.964599                       # Average number of cycles messages are stalled in this MB
system.adapters07.cpuRespBuffer.avg_buf_msgs     0.001521                       # Average number of messages in buffer
system.adapters07.cpuRespBuffer.avg_stall_time   999.899982                       # Average number of cycles messages are stalled in this MB
system.adapters07.networkReqBuffer.avg_buf_msgs     0.001494                       # Average number of messages in buffer
system.adapters07.networkReqBuffer.avg_stall_time 17155.975185                       # Average number of cycles messages are stalled in this MB
system.adapters07.networkRespBuffer.avg_buf_msgs     0.001389                       # Average number of messages in buffer
system.adapters07.networkRespBuffer.avg_stall_time 17030.615936                       # Average number of cycles messages are stalled in this MB
system.adapters07.pwrStateResidencyTicks::UNDEFINED  20574591500                       # Cumulative time (in ticks) in various power states
system.adapters08.cpuReqBuffer.avg_buf_msgs     0.001797                       # Average number of messages in buffer
system.adapters08.cpuReqBuffer.avg_stall_time   999.966178                       # Average number of cycles messages are stalled in this MB
system.adapters08.cpuRespBuffer.avg_buf_msgs     0.001411                       # Average number of messages in buffer
system.adapters08.cpuRespBuffer.avg_stall_time   999.965257                       # Average number of cycles messages are stalled in this MB
system.adapters08.networkReqBuffer.avg_buf_msgs     0.001383                       # Average number of messages in buffer
system.adapters08.networkReqBuffer.avg_stall_time 15124.327226                       # Average number of cycles messages are stalled in this MB
system.adapters08.networkRespBuffer.avg_buf_msgs     0.001437                       # Average number of messages in buffer
system.adapters08.networkRespBuffer.avg_stall_time 14839.432689                       # Average number of cycles messages are stalled in this MB
system.adapters08.pwrStateResidencyTicks::UNDEFINED  20574591500                       # Cumulative time (in ticks) in various power states
system.adapters09.cpuReqBuffer.avg_buf_msgs     0.001781                       # Average number of messages in buffer
system.adapters09.cpuReqBuffer.avg_stall_time   999.899456                       # Average number of cycles messages are stalled in this MB
system.adapters09.cpuRespBuffer.avg_buf_msgs     0.001277                       # Average number of messages in buffer
system.adapters09.cpuRespBuffer.avg_stall_time   999.791937                       # Average number of cycles messages are stalled in this MB
system.adapters09.networkReqBuffer.avg_buf_msgs     0.001253                       # Average number of messages in buffer
system.adapters09.networkReqBuffer.avg_stall_time 13814.119072                       # Average number of cycles messages are stalled in this MB
system.adapters09.networkRespBuffer.avg_buf_msgs     0.001418                       # Average number of messages in buffer
system.adapters09.networkRespBuffer.avg_stall_time 14147.027484                       # Average number of cycles messages are stalled in this MB
system.adapters09.pwrStateResidencyTicks::UNDEFINED  20574591500                       # Cumulative time (in ticks) in various power states
system.adapters10.cpuReqBuffer.avg_buf_msgs     0.001859                       # Average number of messages in buffer
system.adapters10.cpuReqBuffer.avg_stall_time   999.830628                       # Average number of cycles messages are stalled in this MB
system.adapters10.cpuRespBuffer.avg_buf_msgs     0.001325                       # Average number of messages in buffer
system.adapters10.cpuRespBuffer.avg_stall_time   999.774302                       # Average number of cycles messages are stalled in this MB
system.adapters10.networkReqBuffer.avg_buf_msgs     0.001290                       # Average number of messages in buffer
system.adapters10.networkReqBuffer.avg_stall_time 12555.338690                       # Average number of cycles messages are stalled in this MB
system.adapters10.networkRespBuffer.avg_buf_msgs     0.001490                       # Average number of messages in buffer
system.adapters10.networkRespBuffer.avg_stall_time 12786.051549                       # Average number of cycles messages are stalled in this MB
system.adapters10.pwrStateResidencyTicks::UNDEFINED  20574591500                       # Cumulative time (in ticks) in various power states
system.adapters11.cpuReqBuffer.avg_buf_msgs     0.001747                       # Average number of messages in buffer
system.adapters11.cpuReqBuffer.avg_stall_time   999.983813                       # Average number of cycles messages are stalled in this MB
system.adapters11.cpuRespBuffer.avg_buf_msgs     0.001519                       # Average number of messages in buffer
system.adapters11.cpuRespBuffer.avg_stall_time   999.960256                       # Average number of cycles messages are stalled in this MB
system.adapters11.networkReqBuffer.avg_buf_msgs     0.001462                       # Average number of messages in buffer
system.adapters11.networkReqBuffer.avg_stall_time 12293.909483                       # Average number of cycles messages are stalled in this MB
system.adapters11.networkRespBuffer.avg_buf_msgs     0.001401                       # Average number of messages in buffer
system.adapters11.networkRespBuffer.avg_stall_time 12507.519717                       # Average number of cycles messages are stalled in this MB
system.adapters11.pwrStateResidencyTicks::UNDEFINED  20574591500                       # Cumulative time (in ticks) in various power states
system.adapters12.cpuReqBuffer.avg_buf_msgs     0.001922                       # Average number of messages in buffer
system.adapters12.cpuReqBuffer.avg_stall_time   999.953808                       # Average number of cycles messages are stalled in this MB
system.adapters12.cpuRespBuffer.avg_buf_msgs     0.001508                       # Average number of messages in buffer
system.adapters12.cpuRespBuffer.avg_stall_time   999.890902                       # Average number of cycles messages are stalled in this MB
system.adapters12.networkReqBuffer.avg_buf_msgs     0.001486                       # Average number of messages in buffer
system.adapters12.networkReqBuffer.avg_stall_time 12623.159485                       # Average number of cycles messages are stalled in this MB
system.adapters12.networkRespBuffer.avg_buf_msgs     0.001537                       # Average number of messages in buffer
system.adapters12.networkRespBuffer.avg_stall_time 12819.605766                       # Average number of cycles messages are stalled in this MB
system.adapters12.pwrStateResidencyTicks::UNDEFINED  20574591500                       # Cumulative time (in ticks) in various power states
system.adapters13.cpuReqBuffer.avg_buf_msgs     0.001902                       # Average number of messages in buffer
system.adapters13.cpuReqBuffer.avg_stall_time   999.930514                       # Average number of cycles messages are stalled in this MB
system.adapters13.cpuRespBuffer.avg_buf_msgs     0.001549                       # Average number of messages in buffer
system.adapters13.cpuRespBuffer.avg_stall_time   999.865239                       # Average number of cycles messages are stalled in this MB
system.adapters13.networkReqBuffer.avg_buf_msgs     0.001527                       # Average number of messages in buffer
system.adapters13.networkReqBuffer.avg_stall_time 12895.869764                       # Average number of cycles messages are stalled in this MB
system.adapters13.networkRespBuffer.avg_buf_msgs     0.001521                       # Average number of messages in buffer
system.adapters13.networkRespBuffer.avg_stall_time 13039.632396                       # Average number of cycles messages are stalled in this MB
system.adapters13.pwrStateResidencyTicks::UNDEFINED  20574591500                       # Cumulative time (in ticks) in various power states
system.adapters14.cpuReqBuffer.avg_buf_msgs     0.001814                       # Average number of messages in buffer
system.adapters14.cpuReqBuffer.avg_stall_time   999.988551                       # Average number of cycles messages are stalled in this MB
system.adapters14.cpuRespBuffer.avg_buf_msgs     0.001536                       # Average number of messages in buffer
system.adapters14.cpuRespBuffer.avg_stall_time   999.954597                       # Average number of cycles messages are stalled in this MB
system.adapters14.networkReqBuffer.avg_buf_msgs     0.001510                       # Average number of messages in buffer
system.adapters14.networkReqBuffer.avg_stall_time 14131.965613                       # Average number of cycles messages are stalled in this MB
system.adapters14.networkRespBuffer.avg_buf_msgs     0.001451                       # Average number of messages in buffer
system.adapters14.networkRespBuffer.avg_stall_time 14353.565153                       # Average number of cycles messages are stalled in this MB
system.adapters14.pwrStateResidencyTicks::UNDEFINED  20574591500                       # Cumulative time (in ticks) in various power states
system.adapters15.cpuReqBuffer.avg_buf_msgs     0.001893                       # Average number of messages in buffer
system.adapters15.cpuReqBuffer.avg_stall_time   999.984734                       # Average number of cycles messages are stalled in this MB
system.adapters15.cpuRespBuffer.avg_buf_msgs     0.001437                       # Average number of messages in buffer
system.adapters15.cpuRespBuffer.avg_stall_time   999.869845                       # Average number of cycles messages are stalled in this MB
system.adapters15.networkReqBuffer.avg_buf_msgs     0.001421                       # Average number of messages in buffer
system.adapters15.networkReqBuffer.avg_stall_time 15682.585970                       # Average number of cycles messages are stalled in this MB
system.adapters15.networkRespBuffer.avg_buf_msgs     0.001516                       # Average number of messages in buffer
system.adapters15.networkRespBuffer.avg_stall_time 15525.602713                       # Average number of cycles messages are stalled in this MB
system.adapters15.pwrStateResidencyTicks::UNDEFINED  20574591500                       # Cumulative time (in ticks) in various power states
system.adapters16.cpuReqBuffer.avg_buf_msgs     0.001479                       # Average number of messages in buffer
system.adapters16.cpuReqBuffer.avg_stall_time   999.940121                       # Average number of cycles messages are stalled in this MB
system.adapters16.cpuRespBuffer.avg_buf_msgs     0.001353                       # Average number of messages in buffer
system.adapters16.cpuRespBuffer.avg_stall_time   999.982234                       # Average number of cycles messages are stalled in this MB
system.adapters16.networkReqBuffer.avg_buf_msgs     0.001285                       # Average number of messages in buffer
system.adapters16.networkReqBuffer.avg_stall_time 14539.258481                       # Average number of cycles messages are stalled in this MB
system.adapters16.networkRespBuffer.avg_buf_msgs     0.001183                       # Average number of messages in buffer
system.adapters16.networkRespBuffer.avg_stall_time 14305.184896                       # Average number of cycles messages are stalled in this MB
system.adapters16.pwrStateResidencyTicks::UNDEFINED  20574591500                       # Cumulative time (in ticks) in various power states
system.adapters17.cpuReqBuffer.avg_buf_msgs     0.001822                       # Average number of messages in buffer
system.adapters17.cpuReqBuffer.avg_stall_time   999.956966                       # Average number of cycles messages are stalled in this MB
system.adapters17.cpuRespBuffer.avg_buf_msgs     0.001467                       # Average number of messages in buffer
system.adapters17.cpuRespBuffer.avg_stall_time   999.926040                       # Average number of cycles messages are stalled in this MB
system.adapters17.networkReqBuffer.avg_buf_msgs     0.001446                       # Average number of messages in buffer
system.adapters17.networkReqBuffer.avg_stall_time 13017.237782                       # Average number of cycles messages are stalled in this MB
system.adapters17.networkRespBuffer.avg_buf_msgs     0.001464                       # Average number of messages in buffer
system.adapters17.networkRespBuffer.avg_stall_time 12898.475883                       # Average number of cycles messages are stalled in this MB
system.adapters17.pwrStateResidencyTicks::UNDEFINED  20574591500                       # Cumulative time (in ticks) in various power states
system.adapters18.cpuReqBuffer.avg_buf_msgs     0.001843                       # Average number of messages in buffer
system.adapters18.cpuReqBuffer.avg_stall_time   999.956308                       # Average number of cycles messages are stalled in this MB
system.adapters18.cpuRespBuffer.avg_buf_msgs     0.001526                       # Average number of messages in buffer
system.adapters18.cpuRespBuffer.avg_stall_time   999.877873                       # Average number of cycles messages are stalled in this MB
system.adapters18.networkReqBuffer.avg_buf_msgs     0.001512                       # Average number of messages in buffer
system.adapters18.networkReqBuffer.avg_stall_time 12117.321053                       # Average number of cycles messages are stalled in this MB
system.adapters18.networkRespBuffer.avg_buf_msgs     0.001472                       # Average number of messages in buffer
system.adapters18.networkRespBuffer.avg_stall_time 12010.345051                       # Average number of cycles messages are stalled in this MB
system.adapters18.pwrStateResidencyTicks::UNDEFINED  20574591500                       # Cumulative time (in ticks) in various power states
system.adapters19.cpuReqBuffer.avg_buf_msgs     0.001724                       # Average number of messages in buffer
system.adapters19.cpuReqBuffer.avg_stall_time   999.871293                       # Average number of cycles messages are stalled in this MB
system.adapters19.cpuRespBuffer.avg_buf_msgs     0.001649                       # Average number of messages in buffer
system.adapters19.cpuRespBuffer.avg_stall_time   999.881558                       # Average number of cycles messages are stalled in this MB
system.adapters19.networkReqBuffer.avg_buf_msgs     0.001592                       # Average number of messages in buffer
system.adapters19.networkReqBuffer.avg_stall_time 11460.791923                       # Average number of cycles messages are stalled in this MB
system.adapters19.networkRespBuffer.avg_buf_msgs     0.001377                       # Average number of messages in buffer
system.adapters19.networkRespBuffer.avg_stall_time 11442.910607                       # Average number of cycles messages are stalled in this MB
system.adapters19.pwrStateResidencyTicks::UNDEFINED  20574591500                       # Cumulative time (in ticks) in various power states
system.adapters20.cpuReqBuffer.avg_buf_msgs     0.001818                       # Average number of messages in buffer
system.adapters20.cpuReqBuffer.avg_stall_time   999.956571                       # Average number of cycles messages are stalled in this MB
system.adapters20.cpuRespBuffer.avg_buf_msgs     0.001612                       # Average number of messages in buffer
system.adapters20.cpuRespBuffer.avg_stall_time   999.850895                       # Average number of cycles messages are stalled in this MB
system.adapters20.networkReqBuffer.avg_buf_msgs     0.001582                       # Average number of messages in buffer
system.adapters20.networkReqBuffer.avg_stall_time 11525.661408                       # Average number of cycles messages are stalled in this MB
system.adapters20.networkRespBuffer.avg_buf_msgs     0.001455                       # Average number of messages in buffer
system.adapters20.networkRespBuffer.avg_stall_time 11608.604875                       # Average number of cycles messages are stalled in this MB
system.adapters20.pwrStateResidencyTicks::UNDEFINED  20574591500                       # Cumulative time (in ticks) in various power states
system.adapters21.cpuReqBuffer.avg_buf_msgs     0.001812                       # Average number of messages in buffer
system.adapters21.cpuReqBuffer.avg_stall_time   999.953676                       # Average number of cycles messages are stalled in this MB
system.adapters21.cpuRespBuffer.avg_buf_msgs     0.001454                       # Average number of messages in buffer
system.adapters21.cpuRespBuffer.avg_stall_time   999.987629                       # Average number of cycles messages are stalled in this MB
system.adapters21.networkReqBuffer.avg_buf_msgs     0.001436                       # Average number of messages in buffer
system.adapters21.networkReqBuffer.avg_stall_time 12111.029415                       # Average number of cycles messages are stalled in this MB
system.adapters21.networkRespBuffer.avg_buf_msgs     0.001444                       # Average number of messages in buffer
system.adapters21.networkRespBuffer.avg_stall_time 11834.686390                       # Average number of cycles messages are stalled in this MB
system.adapters21.pwrStateResidencyTicks::UNDEFINED  20574591500                       # Cumulative time (in ticks) in various power states
system.adapters22.cpuReqBuffer.avg_buf_msgs     0.001744                       # Average number of messages in buffer
system.adapters22.cpuReqBuffer.avg_stall_time   999.967494                       # Average number of cycles messages are stalled in this MB
system.adapters22.cpuRespBuffer.avg_buf_msgs     0.001494                       # Average number of messages in buffer
system.adapters22.cpuRespBuffer.avg_stall_time   999.964862                       # Average number of cycles messages are stalled in this MB
system.adapters22.networkReqBuffer.avg_buf_msgs     0.001467                       # Average number of messages in buffer
system.adapters22.networkReqBuffer.avg_stall_time 13100.644356                       # Average number of cycles messages are stalled in this MB
system.adapters22.networkRespBuffer.avg_buf_msgs     0.001393                       # Average number of messages in buffer
system.adapters22.networkRespBuffer.avg_stall_time 13127.392372                       # Average number of cycles messages are stalled in this MB
system.adapters22.pwrStateResidencyTicks::UNDEFINED  20574591500                       # Cumulative time (in ticks) in various power states
system.adapters23.cpuReqBuffer.avg_buf_msgs     0.001816                       # Average number of messages in buffer
system.adapters23.cpuReqBuffer.avg_stall_time   999.936305                       # Average number of cycles messages are stalled in this MB
system.adapters23.cpuRespBuffer.avg_buf_msgs     0.001445                       # Average number of messages in buffer
system.adapters23.cpuRespBuffer.avg_stall_time   999.948544                       # Average number of cycles messages are stalled in this MB
system.adapters23.networkReqBuffer.avg_buf_msgs     0.001416                       # Average number of messages in buffer
system.adapters23.networkReqBuffer.avg_stall_time 14697.829912                       # Average number of cycles messages are stalled in this MB
system.adapters23.networkRespBuffer.avg_buf_msgs     0.001453                       # Average number of messages in buffer
system.adapters23.networkRespBuffer.avg_stall_time 14813.560620                       # Average number of cycles messages are stalled in this MB
system.adapters23.pwrStateResidencyTicks::UNDEFINED  20574591500                       # Cumulative time (in ticks) in various power states
system.adapters24.cpuReqBuffer.avg_buf_msgs     0.001682                       # Average number of messages in buffer
system.adapters24.cpuReqBuffer.avg_stall_time   999.792463                       # Average number of cycles messages are stalled in this MB
system.adapters24.cpuRespBuffer.avg_buf_msgs     0.001470                       # Average number of messages in buffer
system.adapters24.cpuRespBuffer.avg_stall_time   999.965257                       # Average number of cycles messages are stalled in this MB
system.adapters24.networkReqBuffer.avg_buf_msgs     0.001449                       # Average number of messages in buffer
system.adapters24.networkReqBuffer.avg_stall_time 14149.191551                       # Average number of cycles messages are stalled in this MB
system.adapters24.networkRespBuffer.avg_buf_msgs     0.001343                       # Average number of messages in buffer
system.adapters24.networkRespBuffer.avg_stall_time 13835.336373                       # Average number of cycles messages are stalled in this MB
system.adapters24.pwrStateResidencyTicks::UNDEFINED  20574591500                       # Cumulative time (in ticks) in various power states
system.adapters25.cpuReqBuffer.avg_buf_msgs     0.001579                       # Average number of messages in buffer
system.adapters25.cpuReqBuffer.avg_stall_time   999.949070                       # Average number of cycles messages are stalled in this MB
system.adapters25.cpuRespBuffer.avg_buf_msgs     0.001468                       # Average number of messages in buffer
system.adapters25.cpuRespBuffer.avg_stall_time   999.679812                       # Average number of cycles messages are stalled in this MB
system.adapters25.networkReqBuffer.avg_buf_msgs     0.001424                       # Average number of messages in buffer
system.adapters25.networkReqBuffer.avg_stall_time 12603.289792                       # Average number of cycles messages are stalled in this MB
system.adapters25.networkRespBuffer.avg_buf_msgs     0.001264                       # Average number of messages in buffer
system.adapters25.networkRespBuffer.avg_stall_time 12424.843796                       # Average number of cycles messages are stalled in this MB
system.adapters25.pwrStateResidencyTicks::UNDEFINED  20574591500                       # Cumulative time (in ticks) in various power states
system.adapters26.cpuReqBuffer.avg_buf_msgs     0.001700                       # Average number of messages in buffer
system.adapters26.cpuReqBuffer.avg_stall_time   999.780356                       # Average number of cycles messages are stalled in this MB
system.adapters26.cpuRespBuffer.avg_buf_msgs     0.001616                       # Average number of messages in buffer
system.adapters26.cpuRespBuffer.avg_stall_time   999.980128                       # Average number of cycles messages are stalled in this MB
system.adapters26.networkReqBuffer.avg_buf_msgs     0.001571                       # Average number of messages in buffer
system.adapters26.networkReqBuffer.avg_stall_time 11588.893894                       # Average number of cycles messages are stalled in this MB
system.adapters26.networkRespBuffer.avg_buf_msgs     0.001358                       # Average number of messages in buffer
system.adapters26.networkRespBuffer.avg_stall_time 11888.516951                       # Average number of cycles messages are stalled in this MB
system.adapters26.pwrStateResidencyTicks::UNDEFINED  20574591500                       # Cumulative time (in ticks) in various power states
system.adapters27.cpuReqBuffer.avg_buf_msgs     0.001782                       # Average number of messages in buffer
system.adapters27.cpuReqBuffer.avg_stall_time   999.979602                       # Average number of cycles messages are stalled in this MB
system.adapters27.cpuRespBuffer.avg_buf_msgs     0.001440                       # Average number of messages in buffer
system.adapters27.cpuRespBuffer.avg_stall_time   999.985129                       # Average number of cycles messages are stalled in this MB
system.adapters27.networkReqBuffer.avg_buf_msgs     0.001422                       # Average number of messages in buffer
system.adapters27.networkReqBuffer.avg_stall_time 11191.905084                       # Average number of cycles messages are stalled in this MB
system.adapters27.networkRespBuffer.avg_buf_msgs     0.001423                       # Average number of messages in buffer
system.adapters27.networkRespBuffer.avg_stall_time 11014.773268                       # Average number of cycles messages are stalled in this MB
system.adapters27.pwrStateResidencyTicks::UNDEFINED  20574591500                       # Cumulative time (in ticks) in various power states
system.adapters28.cpuReqBuffer.avg_buf_msgs     0.001764                       # Average number of messages in buffer
system.adapters28.cpuReqBuffer.avg_stall_time   999.879058                       # Average number of cycles messages are stalled in this MB
system.adapters28.cpuRespBuffer.avg_buf_msgs     0.001458                       # Average number of messages in buffer
system.adapters28.cpuRespBuffer.avg_stall_time   999.947886                       # Average number of cycles messages are stalled in this MB
system.adapters28.networkReqBuffer.avg_buf_msgs     0.001422                       # Average number of messages in buffer
system.adapters28.networkReqBuffer.avg_stall_time 11273.023623                       # Average number of cycles messages are stalled in this MB
system.adapters28.networkRespBuffer.avg_buf_msgs     0.001408                       # Average number of messages in buffer
system.adapters28.networkRespBuffer.avg_stall_time 11206.103117                       # Average number of cycles messages are stalled in this MB
system.adapters28.pwrStateResidencyTicks::UNDEFINED  20574591500                       # Cumulative time (in ticks) in various power states
system.adapters29.cpuReqBuffer.avg_buf_msgs     0.001870                       # Average number of messages in buffer
system.adapters29.cpuReqBuffer.avg_stall_time   999.986050                       # Average number of cycles messages are stalled in this MB
system.adapters29.cpuRespBuffer.avg_buf_msgs     0.001488                       # Average number of messages in buffer
system.adapters29.cpuRespBuffer.avg_stall_time   999.833655                       # Average number of cycles messages are stalled in this MB
system.adapters29.networkReqBuffer.avg_buf_msgs     0.001476                       # Average number of messages in buffer
system.adapters29.networkReqBuffer.avg_stall_time 11955.165304                       # Average number of cycles messages are stalled in this MB
system.adapters29.networkRespBuffer.avg_buf_msgs     0.001499                       # Average number of messages in buffer
system.adapters29.networkRespBuffer.avg_stall_time 11668.434391                       # Average number of cycles messages are stalled in this MB
system.adapters29.pwrStateResidencyTicks::UNDEFINED  20574591500                       # Cumulative time (in ticks) in various power states
system.adapters30.cpuReqBuffer.avg_buf_msgs     0.001990                       # Average number of messages in buffer
system.adapters30.cpuReqBuffer.avg_stall_time   999.961704                       # Average number of cycles messages are stalled in this MB
system.adapters30.cpuRespBuffer.avg_buf_msgs     0.001410                       # Average number of messages in buffer
system.adapters30.cpuRespBuffer.avg_stall_time   999.982102                       # Average number of cycles messages are stalled in this MB
system.adapters30.networkReqBuffer.avg_buf_msgs     0.001395                       # Average number of messages in buffer
system.adapters30.networkReqBuffer.avg_stall_time 12832.118897                       # Average number of cycles messages are stalled in this MB
system.adapters30.networkRespBuffer.avg_buf_msgs     0.001589                       # Average number of messages in buffer
system.adapters30.networkRespBuffer.avg_stall_time 12889.415333                       # Average number of cycles messages are stalled in this MB
system.adapters30.pwrStateResidencyTicks::UNDEFINED  20574591500                       # Cumulative time (in ticks) in various power states
system.adapters31.cpuReqBuffer.avg_buf_msgs     0.001714                       # Average number of messages in buffer
system.adapters31.cpuReqBuffer.avg_stall_time   999.937489                       # Average number of cycles messages are stalled in this MB
system.adapters31.cpuRespBuffer.avg_buf_msgs     0.001442                       # Average number of messages in buffer
system.adapters31.cpuRespBuffer.avg_stall_time   999.902614                       # Average number of cycles messages are stalled in this MB
system.adapters31.networkReqBuffer.avg_buf_msgs     0.001383                       # Average number of messages in buffer
system.adapters31.networkReqBuffer.avg_stall_time 14371.229721                       # Average number of cycles messages are stalled in this MB
system.adapters31.networkRespBuffer.avg_buf_msgs     0.001373                       # Average number of messages in buffer
system.adapters31.networkRespBuffer.avg_stall_time 14944.283183                       # Average number of cycles messages are stalled in this MB
system.adapters31.pwrStateResidencyTicks::UNDEFINED  20574591500                       # Cumulative time (in ticks) in various power states
system.adapters32.cpuReqBuffer.avg_buf_msgs     0.001784                       # Average number of messages in buffer
system.adapters32.cpuReqBuffer.avg_stall_time   999.934594                       # Average number of cycles messages are stalled in this MB
system.adapters32.cpuRespBuffer.avg_buf_msgs     0.001604                       # Average number of messages in buffer
system.adapters32.cpuRespBuffer.avg_stall_time   999.959467                       # Average number of cycles messages are stalled in this MB
system.adapters32.networkReqBuffer.avg_buf_msgs     0.001584                       # Average number of messages in buffer
system.adapters32.networkReqBuffer.avg_stall_time 14188.868824                       # Average number of cycles messages are stalled in this MB
system.adapters32.networkRespBuffer.avg_buf_msgs     0.001426                       # Average number of messages in buffer
system.adapters32.networkRespBuffer.avg_stall_time 14012.498984                       # Average number of cycles messages are stalled in this MB
system.adapters32.pwrStateResidencyTicks::UNDEFINED  20574591500                       # Cumulative time (in ticks) in various power states
system.adapters33.cpuReqBuffer.avg_buf_msgs     0.001784                       # Average number of messages in buffer
system.adapters33.cpuReqBuffer.avg_stall_time   999.794701                       # Average number of cycles messages are stalled in this MB
system.adapters33.cpuRespBuffer.avg_buf_msgs     0.001389                       # Average number of messages in buffer
system.adapters33.cpuRespBuffer.avg_stall_time   999.971311                       # Average number of cycles messages are stalled in this MB
system.adapters33.networkReqBuffer.avg_buf_msgs     0.001377                       # Average number of messages in buffer
system.adapters33.networkReqBuffer.avg_stall_time 12731.570084                       # Average number of cycles messages are stalled in this MB
system.adapters33.networkRespBuffer.avg_buf_msgs     0.001423                       # Average number of messages in buffer
system.adapters33.networkRespBuffer.avg_stall_time 12595.913226                       # Average number of cycles messages are stalled in this MB
system.adapters33.pwrStateResidencyTicks::UNDEFINED  20574591500                       # Cumulative time (in ticks) in various power states
system.adapters34.cpuReqBuffer.avg_buf_msgs     0.001664                       # Average number of messages in buffer
system.adapters34.cpuReqBuffer.avg_stall_time   999.856290                       # Average number of cycles messages are stalled in this MB
system.adapters34.cpuRespBuffer.avg_buf_msgs     0.001596                       # Average number of messages in buffer
system.adapters34.cpuRespBuffer.avg_stall_time   999.935515                       # Average number of cycles messages are stalled in this MB
system.adapters34.networkReqBuffer.avg_buf_msgs     0.001550                       # Average number of messages in buffer
system.adapters34.networkReqBuffer.avg_stall_time 11725.466439                       # Average number of cycles messages are stalled in this MB
system.adapters34.networkRespBuffer.avg_buf_msgs     0.001327                       # Average number of messages in buffer
system.adapters34.networkRespBuffer.avg_stall_time 11709.255549                       # Average number of cycles messages are stalled in this MB
system.adapters34.pwrStateResidencyTicks::UNDEFINED  20574591500                       # Cumulative time (in ticks) in various power states
system.adapters35.cpuReqBuffer.avg_buf_msgs     0.001830                       # Average number of messages in buffer
system.adapters35.cpuReqBuffer.avg_stall_time   999.975259                       # Average number of cycles messages are stalled in this MB
system.adapters35.cpuRespBuffer.avg_buf_msgs     0.001419                       # Average number of messages in buffer
system.adapters35.cpuRespBuffer.avg_stall_time   999.834576                       # Average number of cycles messages are stalled in this MB
system.adapters35.networkReqBuffer.avg_buf_msgs     0.001405                       # Average number of messages in buffer
system.adapters35.networkReqBuffer.avg_stall_time 11314.875622                       # Average number of cycles messages are stalled in this MB
system.adapters35.networkRespBuffer.avg_buf_msgs     0.001464                       # Average number of messages in buffer
system.adapters35.networkRespBuffer.avg_stall_time 11259.851164                       # Average number of cycles messages are stalled in this MB
system.adapters35.pwrStateResidencyTicks::UNDEFINED  20574591500                       # Cumulative time (in ticks) in various power states
system.adapters36.cpuReqBuffer.avg_buf_msgs     0.001810                       # Average number of messages in buffer
[...]
system.ruby.SC3_Controller.C.Replacement::total      1249497                      
system.ruby.SC3_Controller.MI.Writeback_Ack |        6201      1.78%      1.78% |        6962      2.00%      3.78% |        6516      1.87%      5.65% |        6383      1.83%      7.48% |        5727      1.64%      9.13% |        6083      1.75%     10.87% |        6663      1.91%     12.78% |        7163      2.06%     14.84% |        5830      1.67%     16.51% |        5594      1.61%     18.12% |        6067      1.74%     19.86% |        5777      1.66%     21.52% |        8832      2.54%     24.06% |        5458      1.57%     25.62% |        5596      1.61%     27.23% |        6589      1.89%     29.12% |        6284      1.80%     30.93% |        5561      1.60%     32.52% |        5966      1.71%     34.23% |        5546      1.59%     35.83% |        5414      1.55%     37.38% |        6515      1.87%     39.25% |        6309      1.81%     41.06% |        5921      1.70%     42.76% |        5975      1.72%     44.48% |        5168      1.48%     45.96% |        5208      1.50%     47.46% |        6785      1.95%     49.40% |        4959      1.42%     50.83% |        4855      1.39%     52.22% |        6087      1.75%     53.97% |        5247      1.51%     55.48% |        5757      1.65%     57.13% |        6862      1.97%     59.10% |        6470      1.86%     60.96% |        7562      2.17%     63.13% |        5423      1.56%     64.68% |        5528      1.59%     66.27% |        5200      1.49%     67.76% |        5677      1.63%     69.39% |        5674      1.63%     71.02% |        5388      1.55%     72.57% |        5935      1.70%     74.27% |        5219      1.50%     75.77% |        5983      1.72%     77.49% |        4955      1.42%     78.91% |        5419      1.56%     80.47% |        5246      1.51%     81.97% |        6465      1.86%     83.83% |        5376      1.54%     85.37% |        5159      1.48%     86.85% |        4821      1.38%     88.24% |        4664      1.34%     89.58% |        4979      1.43%     91.00% |        5375      1.54%     92.55% |        5472      1.57%     94.12% |        5578      1.60%     95.72% |        5431      1.56%     97.28% |        4688      1.35%     98.62% |        4791      1.38%    100.00%
system.ruby.SC3_Controller.MI.Writeback_Ack::total       348338                      
system.ruby.SC3_Controller.MA.Writeback_Ack |          37      1.74%      1.74% |          42      1.97%      3.71% |          48      2.25%      5.96% |          36      1.69%      7.65% |          33      1.55%      9.19% |          37      1.74%     10.93% |          52      2.44%     13.37% |          58      2.72%     16.09% |          35      1.64%     17.73% |          24      1.13%     18.86% |          30      1.41%     20.26% |          28      1.31%     21.58% |          65      3.05%     24.62% |          28      1.31%     25.94% |          21      0.98%     26.92% |          55      2.58%     29.50% |          37      1.74%     31.24% |          25      1.17%     32.41% |          24      1.13%     33.54% |          23      1.08%     34.62% |          22      1.03%     35.65% |          48      2.25%     37.90% |          45      2.11%     40.01% |          28      1.31%     41.32% |          45      2.11%     43.43% |          27      1.27%     44.70% |          38      1.78%     46.48% |          59      2.77%     49.25% |          24      1.13%     50.38% |          17      0.80%     51.17% |          48      2.25%     53.42% |          28      1.31%     54.74% |          36      1.69%     56.43% |          49      2.30%     58.72% |          40      1.88%     60.60% |          77      3.61%     64.21% |          35      1.64%     65.85% |          31      1.45%     67.31% |          36      1.69%     69.00% |          44      2.06%     71.06% |          28      1.31%     72.37% |          37      1.74%     74.11% |          45      2.11%     76.22% |          28      1.31%     77.53% |          42      1.97%     79.50% |          25      1.17%     80.68% |          34      1.59%     82.27% |          27      1.27%     83.54% |          40      1.88%     85.41% |          29      1.36%     86.77% |          29      1.36%     88.13% |          22      1.03%     89.17% |          28      1.31%     90.48% |          40      1.88%     92.35% |          33      1.55%     93.90% |          26      1.22%     95.12% |          30      1.41%     96.53% |          39      1.83%     98.36% |          19      0.89%     99.25% |          16      0.75%    100.00%
system.ruby.SC3_Controller.MA.Writeback_Ack::total         2132                      
system.ruby.SC3_Controller.IA.AtomicResp |       11420      1.75%      1.75% |       11113      1.70%      3.45% |       11369      1.74%      5.19% |       10950      1.67%      6.86% |       11275      1.72%      8.59% |       11179      1.71%     10.30% |       11755      1.80%     12.09% |       11078      1.69%     13.79% |       12061      1.84%     15.63% |       11912      1.82%     17.45% |       11413      1.75%     19.20% |       11870      1.82%     21.02% |        9465      1.45%     22.46% |       11455      1.75%     24.22% |       11534      1.76%     25.98% |       10883      1.66%     27.64% |       11411      1.75%     29.39% |       11336      1.73%     31.12% |       10941      1.67%     32.80% |       11384      1.74%     34.54% |       10565      1.62%     36.16% |       10019      1.53%     37.69% |       10695      1.64%     39.32% |       11190      1.71%     41.04% |       11104      1.70%     42.73% |       11725      1.79%     44.53% |       12436      1.90%     46.43% |       10854      1.66%     48.09% |       11139      1.70%     49.79% |       11129      1.70%     51.50% |       10484      1.60%     53.10% |       11454      1.75%     54.85% |       11343      1.74%     56.59% |       10503      1.61%     58.19% |        9672      1.48%     59.67% |        9668      1.48%     61.15% |       10455      1.60%     62.75% |       10354      1.58%     64.33% |       11060      1.69%     66.03% |       11019      1.69%     67.71% |       10738      1.64%     69.35% |       11625      1.78%     71.13% |       10216      1.56%     72.69% |       11414      1.75%     74.44% |        9204      1.41%     75.85% |       10458      1.60%     77.45% |       10510      1.61%     79.06% |       10559      1.62%     80.67% |        9887      1.51%     82.18% |       10965      1.68%     83.86% |       11154      1.71%     85.57% |       10770      1.65%     87.21% |       10533      1.61%     88.82% |       10608      1.62%     90.45% |       10217      1.56%     92.01% |        9954      1.52%     93.53% |       10140      1.55%     95.08% |       10456      1.60%     96.68% |       11068      1.69%     98.38% |       10617      1.62%    100.00%
system.ruby.SC3_Controller.IA.AtomicResp::total       653765                      
system.ruby.SC3_Controller.IS.Data       |       43773      1.78%      1.78% |       43853      1.79%      3.57% |       44439      1.81%      5.38% |       44316      1.81%      7.19% |       40962      1.67%      8.86% |       43511      1.77%     10.63% |       43765      1.78%     12.42% |       45676      1.86%     14.28% |       42200      1.72%     16.00% |       42242      1.72%     17.72% |       43712      1.78%     19.50% |       42297      1.72%     21.23% |       46827      1.91%     23.13% |       40438      1.65%     24.78% |       41746      1.70%     26.48% |       43304      1.77%     28.25% |       41978      1.71%     29.96% |       41698      1.70%     31.66% |       42633      1.74%     33.40% |       40786      1.66%     35.06% |       40132      1.64%     36.69% |       43670      1.78%     38.47% |       42227      1.72%     40.20% |       42679      1.74%     41.94% |       41417      1.69%     43.62% |       40070      1.63%     45.26% |       40056      1.63%     46.89% |       43678      1.78%     48.67% |       37246      1.52%     50.19% |       37988      1.55%     51.74% |       41717      1.70%     53.44% |       39220      1.60%     55.04% |       40590      1.65%     56.69% |       43027      1.75%     58.44% |       43214      1.76%     60.20% |       44471      1.81%     62.02% |       38975      1.59%     63.61% |       40046      1.63%     65.24% |       39040      1.59%     66.83% |       40628      1.66%     68.49% |       40551      1.65%     70.14% |       39522      1.61%     71.75% |       40816      1.66%     73.41% |       39519      1.61%     75.02% |       38390      1.56%     76.59% |       38383      1.56%     78.15% |       39158      1.60%     79.75% |       39016      1.59%     81.34% |       40506      1.65%     82.99% |       39583      1.61%     84.60% |       38690      1.58%     86.18% |       37532      1.53%     87.71% |       35633      1.45%     89.16% |       37362      1.52%     90.69% |       37573      1.53%     92.22% |       39323      1.60%     93.82% |       39098      1.59%     95.41% |       38777      1.58%     96.99% |       37262      1.52%     98.51% |       36505      1.49%    100.00%
system.ruby.SC3_Controller.IS.Data::total      2453446                      
system.ruby.SC3_Controller.IMR.Data      |          11      0.82%      0.82% |          31      2.30%      3.12% |          21      1.56%      4.67% |          16      1.19%      5.86% |          22      1.63%      7.49% |          17      1.26%      8.75% |          18      1.34%     10.09% |          65      4.82%     14.91% |           9      0.67%     15.58% |          11      0.82%     16.39% |          17      1.26%     17.66% |           5      0.37%     18.03% |          60      4.45%     22.48% |           6      0.45%     22.92% |           2      0.15%     23.07% |          41      3.04%     26.11% |          16      1.19%     27.30% |          10      0.74%     28.04% |          17      1.26%     29.30% |          15      1.11%     30.42% |          17      1.26%     31.68% |          26      1.93%     33.61% |          16      1.19%     34.79% |          29      2.15%     36.94% |          26      1.93%     38.87% |           5      0.37%     39.24% |           9      0.67%     39.91% |          60      4.45%     44.36% |           8      0.59%     44.96% |          10      0.74%     45.70% |          43      3.19%     48.89% |           5      0.37%     49.26% |          17      1.26%     50.52% |          38      2.82%     53.34% |          42      3.12%     56.45% |          97      7.20%     63.65% |          22      1.63%     65.28% |          16      1.19%     66.47% |          11      0.82%     67.28% |          21      1.56%     68.84% |          12      0.89%     69.73% |          24      1.78%     71.51% |          39      2.89%     74.41% |          15      1.11%     75.52% |          59      4.38%     79.90% |          19      1.41%     81.31% |          32      2.37%     83.68% |          11      0.82%     84.50% |          30      2.23%     86.72% |          15      1.11%     87.83% |          15      1.11%     88.95% |           4      0.30%     89.24% |          21      1.56%     90.80% |          14      1.04%     91.84% |          26      1.93%     93.77% |          38      2.82%     96.59% |          25      1.85%     98.44% |          11      0.82%     99.26% |           8      0.59%     99.85% |           2      0.15%    100.00%
system.ruby.SC3_Controller.IMR.Data::total         1348                      
system.ruby.SC3_Controller.IMW.Data      |        4866      1.78%      1.78% |        5034      1.84%      3.61% |        5088      1.86%      5.47% |        4976      1.82%      7.28% |        4463      1.63%      8.91% |        4901      1.79%     10.70% |        5098      1.86%     12.56% |        5405      1.97%     14.53% |        4564      1.67%     16.20% |        4437      1.62%     17.82% |        4839      1.77%     19.58% |        4422      1.61%     21.20% |        6447      2.35%     23.55% |        4317      1.58%     25.13% |        4358      1.59%     26.72% |        5231      1.91%     28.63% |        4728      1.73%     30.35% |        4436      1.62%     31.97% |        4537      1.66%     33.63% |        4276      1.56%     35.19% |        4411      1.61%     36.79% |        5086      1.86%     38.65% |        4850      1.77%     40.42% |        4724      1.72%     42.14% |        4767      1.74%     43.88% |        4147      1.51%     45.40% |        4203      1.53%     46.93% |        5232      1.91%     48.84% |        3904      1.42%     50.26% |        3911      1.43%     51.69% |        5004      1.83%     53.52% |        4198      1.53%     55.05% |        4534      1.65%     56.70% |        5133      1.87%     58.58% |        4940      1.80%     60.38% |        6008      2.19%     62.57% |        4293      1.57%     64.14% |        4403      1.61%     65.75% |        4277      1.56%     67.31% |        4477      1.63%     68.94% |        4386      1.60%     70.54% |        4281      1.56%     72.10% |        4803      1.75%     73.86% |        4306      1.57%     75.43% |        4687      1.71%     77.14% |        4097      1.50%     78.63% |        4503      1.64%     80.27% |        4255      1.55%     81.83% |        4836      1.76%     83.59% |        4226      1.54%     85.13% |        4082      1.49%     86.62% |        3926      1.43%     88.06% |        3786      1.38%     89.44% |        4138      1.51%     90.95% |        4165      1.52%     92.47% |        4305      1.57%     94.04% |        4420      1.61%     95.65% |        4386      1.60%     97.25% |        3836      1.40%     98.65% |        3694      1.35%    100.00%
system.ruby.SC3_Controller.IMW.Data::total       274043                      
system.ruby.SC3_Controller.PI.Writeback_Ack |         112      1.37%      1.37% |         130      1.59%      2.96% |         202      2.47%      5.43% |         120      1.47%      6.90% |         106      1.30%      8.19% |         123      1.50%      9.70% |         186      2.27%     11.97% |         161      1.97%     13.94% |         115      1.41%     15.35% |          87      1.06%     16.41% |         127      1.55%     17.96% |          90      1.10%     19.06% |         177      2.16%     21.23% |          79      0.97%     22.19% |          89      1.09%     23.28% |         215      2.63%     25.91% |          96      1.17%     27.08% |          89      1.09%     28.17% |         100      1.22%     29.40% |          98      1.20%     30.59% |         121      1.48%     32.07% |         181      2.21%     34.29% |         166      2.03%     36.32% |         121      1.48%     37.80% |         195      2.38%     40.18% |          96      1.17%     41.35% |         144      1.76%     43.12% |         166      2.03%     45.15% |         112      1.37%     46.52% |          72      0.88%     47.40% |         191      2.34%     49.73% |          88      1.08%     50.81% |          93      1.14%     51.94% |         115      1.41%     53.35% |         146      1.79%     55.14% |         248      3.03%     58.17% |         124      1.52%     59.68% |         125      1.53%     61.21% |         173      2.12%     63.33% |         237      2.90%     66.23% |         121      1.48%     67.71% |         151      1.85%     69.55% |         248      3.03%     72.58% |          91      1.11%     73.70% |         154      1.88%     75.58% |          93      1.14%     76.72% |         137      1.68%     78.39% |         120      1.47%     79.86% |         176      2.15%     82.01% |          97      1.19%     83.20% |         150      1.83%     85.03% |         142      1.74%     86.77% |         140      1.71%     88.48% |         215      2.63%     91.11% |         156      1.91%     93.02% |         116      1.42%     94.44% |         111      1.36%     95.79% |         188      2.30%     98.09% |          96      1.17%     99.27% |          60      0.73%    100.00%
system.ruby.SC3_Controller.PI.Writeback_Ack::total         8178                      
system.ruby.SC3_Controller.MC.Writeback_Ack |        5218      1.78%      1.78% |        4972      1.70%      3.47% |        5319      1.81%      5.29% |        5313      1.81%      7.10% |        4788      1.63%      8.73% |        5327      1.82%     10.55% |        5327      1.82%     12.37% |        5416      1.85%     14.21% |        4833      1.65%     15.86% |        4917      1.68%     17.54% |        5165      1.76%     19.30% |        4749      1.62%     20.92% |        6206      2.12%     23.04% |        4635      1.58%     24.62% |        4769      1.63%     26.24% |        5411      1.85%     28.09% |        4712      1.61%     29.69% |        4979      1.70%     31.39% |        4979      1.70%     33.09% |        4722      1.61%     34.70% |        5017      1.71%     36.41% |        5467      1.86%     38.28% |        5063      1.73%     40.00% |        5022      1.71%     41.71% |        4931      1.68%     43.40% |        4656      1.59%     44.98% |        4629      1.58%     46.56% |        5186      1.77%     48.33% |        4103      1.40%     49.73% |        4445      1.52%     51.25% |        5565      1.90%     53.14% |        4592      1.57%     54.71% |        4821      1.64%     56.35% |        5348      1.82%     58.18% |        5365      1.83%     60.01% |        6061      2.07%     62.07% |        4681      1.60%     63.67% |        4713      1.61%     65.28% |        4684      1.60%     66.87% |        4642      1.58%     68.46% |        4649      1.59%     70.04% |        4650      1.59%     71.63% |        5152      1.76%     73.38% |        4728      1.61%     75.00% |        4979      1.70%     76.70% |        4751      1.62%     78.32% |        4996      1.70%     80.02% |        4736      1.62%     81.63% |        4857      1.66%     83.29% |        4591      1.57%     84.86% |        4417      1.51%     86.36% |        4419      1.51%     87.87% |        4138      1.41%     89.28% |        4324      1.47%     90.75% |        4389      1.50%     92.25% |        4759      1.62%     93.87% |        4824      1.65%     95.52% |        4802      1.64%     97.16% |        4301      1.47%     98.62% |        4037      1.38%    100.00%
system.ruby.SC3_Controller.MC.Writeback_Ack::total       293247                      

---------- End Simulation Statistics   ----------
