McPAT (version 1.2 of June, 2014) is computing the target processor...
 

McPAT (version 1.2 of June, 2014) results (current print level is 4, please increase print level to see the details in components): 
*****************************************************************************************
  Technology 28 nm
  Using Long Channel Devices When Appropriate
  Interconnect metal projection= aggressive interconnect technology projection
  Core clock Rate(MHz) 1000

*****************************************************************************************
Processor: 
  Area = 245.931 mm^2
  Peak Power = 68.5266 W
  Total Leakage = 42.4136 W
  Peak Dynamic = 26.113 W
  Subthreshold Leakage = 42.2057 W
  Subthreshold Leakage with power gating = 29.7821 W
  Gate Leakage = 0.207838 W
  Runtime Dynamic = 3.42832 W

  Total Cores: 64 cores 
  Device Type= ITRS low operating power device type
    Area = 245.594 mm^2
    Peak Dynamic = 23.8931 W
    Subthreshold Leakage = 40.5038 W
    Subthreshold Leakage with power gating = 29.2484 W
    Gate Leakage = 0.202773 W
    Runtime Dynamic = 3.22446 W

  Total First Level Directory: 
  Device Type= ITRS high performance device type
    Area = 0.22996 mm^2
    Peak Dynamic = 0.181271 W
    Subthreshold Leakage = 0.045217 W
    Subthreshold Leakage with power gating = 0.0331241 W
    Gate Leakage = 0.00491722 W
    Runtime Dynamic = 0 W

  Total MCs: 1 Memory Controllers 
  Device Type= ITRS low operating power device type
    Area = 0.106977 mm^2
    Peak Dynamic = 2.03862 W
    Subthreshold Leakage = 1.6567 W
    Subthreshold Leakage with power gating = 0.500555 W
    Gate Leakage = 0.000147409 W
    Runtime Dynamic = 0.203862 W

*****************************************************************************************
Core:
      Area = 6.07158 mm^2
      Peak Dynamic = 0.624587 W
      Subthreshold Leakage = 1.15465 W
      Subthreshold Leakage with power gating = 0.843503 W
      Gate Leakage = 0.0047013 W
      Runtime Dynamic = 0.23571 W

      Instruction Fetch Unit:
        Area = 0.799163 mm^2
        Peak Dynamic = 0.106036 W
        Subthreshold Leakage = 0.127446 W
        Subthreshold Leakage with power gating = 0.0976153 W
        Gate Leakage = 0.000466582 W
        Runtime Dynamic = 0.007157 W

          Instruction Cache:
            Area = 0.726697 mm^2
            Peak Dynamic = 0.0764274 W
            Subthreshold Leakage = 0.120172 W
            Subthreshold Leakage with power gating = 0.0922399 W
            Gate Leakage = 0.000430086 W
            Runtime Dynamic = 0.00230594 W

          Branch Target Buffer:
            Area = 0.0545931 mm^2
            Peak Dynamic = 0.00214156 W
            Subthreshold Leakage = 0.00308708 W
            Subthreshold Leakage with power gating = 0.00231303 W
            Gate Leakage = 5.3839e-06 W
            Runtime Dynamic = 0 W

          Branch Predictor:
            Area = 0.00582312 mm^2
            Peak Dynamic = 0.000776521 W
            Subthreshold Leakage = 0.000420341 W
            Subthreshold Leakage with power gating = 0.000331081 W
            Gate Leakage = 2.04177e-06 W
            Runtime Dynamic = 9.1492e-06 W

              Global Predictor:
                Area = 0.000832803 mm^2
                Peak Dynamic = 6.36785e-05 W
                Subthreshold Leakage = 7.53472e-05 W
                Subthreshold Leakage with power gating = 5.95709e-05 W
                Gate Leakage = 4.18718e-07 W
                Runtime Dynamic = 2.2873e-06 W

              Local Predictor:
              L1_Local Predictor:
                Area = 0.000832803 mm^2
                Peak Dynamic = 6.36785e-05 W
                Subthreshold Leakage = 7.53472e-05 W
                Subthreshold Leakage with power gating = 5.95709e-05 W
                Gate Leakage = 4.18718e-07 W
                Runtime Dynamic = 2.2873e-06 W

              L2_Local Predictor:
                Area = 0.000832803 mm^2
                Peak Dynamic = 6.36785e-05 W
                Subthreshold Leakage = 7.53472e-05 W
                Subthreshold Leakage with power gating = 5.95709e-05 W
                Gate Leakage = 4.18718e-07 W
                Runtime Dynamic = 2.2873e-06 W

              Chooser:
                Area = 0.000832803 mm^2
                Peak Dynamic = 6.36785e-05 W
                Subthreshold Leakage = 7.53472e-05 W
                Subthreshold Leakage with power gating = 5.95709e-05 W
                Gate Leakage = 4.18718e-07 W
                Runtime Dynamic = 2.2873e-06 W

              RAS:
                Area = 0.00249191 mm^2
                Peak Dynamic = 0.000521807 W
                Subthreshold Leakage = 0.000118953 W
                Subthreshold Leakage with power gating = 9.27973e-05 W
                Gate Leakage = 3.66901e-07 W
                Runtime Dynamic = 0 W

          Instruction Buffer:
            Area = 0.00126412 mm^2
            Peak Dynamic = 0.000564263 W
            Subthreshold Leakage = 0.000165437 W
            Subthreshold Leakage with power gating = 0.000138436 W
            Gate Leakage = 6.23728e-07 W
            Runtime Dynamic = 0.00031853 W

          Instruction Decoder:
            Area = 0.00559094 mm^2
            Peak Dynamic = 0.0251521 W
            Subthreshold Leakage = 0.00126658 W
            Subthreshold Leakage with power gating = 0.000911935 W
            Gate Leakage = 4.03819e-06 W
            Runtime Dynamic = 0.00354962 W

      Renaming Unit:
        Area = 0.447495 mm^2
        Peak Dynamic = 0.0834284 W
        Subthreshold Leakage = 0.0126591 W
        Subthreshold Leakage with power gating = 0.0094832 W
        Gate Leakage = 4.96399e-05 W
        Runtime Dynamic = 0.00908364 W

          Int Front End RAT:
            Area = 0.386757 mm^2
            Peak Dynamic = 0.0653154 W
            Subthreshold Leakage = 0.00803443 W
            Subthreshold Leakage with power gating = 0.006026 W
            Gate Leakage = 1.79681e-05 W
            Runtime Dynamic = 0.00340514 W

          FP Front End RAT:
            Area = 0.0189802 mm^2
            Peak Dynamic = 0.00695576 W
            Subthreshold Leakage = 0.00110633 W
            Subthreshold Leakage with power gating = 0.000872726 W
            Gate Leakage = 2.83736e-06 W
            Runtime Dynamic = 0.00153711 W

          Free List:
            Area = 0.017316 mm^2
            Peak Dynamic = 0.00282011 W
            Subthreshold Leakage = 0.000335752 W
            Subthreshold Leakage with power gating = 0.000248143 W
            Gate Leakage = 1.18384e-06 W
            Runtime Dynamic = 0.000170234 W

          Int Retire RAT: 
            Area = 0.0125171 mm^2
            Peak Dynamic = 0.00265191 W
            Subthreshold Leakage = 0.000480545 W
            Subthreshold Leakage with power gating = 0.000362143 W
            Gate Leakage = 1.68485e-06 W
            Runtime Dynamic = 0 W

          FP Retire RAT:
            Area = 0.00184018 mm^2
            Peak Dynamic = 0.000346853 W
            Subthreshold Leakage = 0.000196824 W
            Subthreshold Leakage with power gating = 0.000161625 W
            Gate Leakage = 8.18482e-07 W
            Runtime Dynamic = 0 W

          FP Free List:
            Area = 0.00489073 mm^2
            Peak Dynamic = 0.00144117 W
            Subthreshold Leakage = 0.000170661 W
            Subthreshold Leakage with power gating = 0.000131657 W
            Gate Leakage = 7.39226e-07 W
            Runtime Dynamic = 7.61194e-05 W

      Load Store Unit:
        Area = 1.03069 mm^2
        Peak Dynamic = 0.164282 W
        Subthreshold Leakage = 0.154421 W
        Subthreshold Leakage with power gating = 0.116899 W
        Gate Leakage = 0.000588166 W
        Runtime Dynamic = 0.0259932 W

          Data Cache:
            Area = 0.882951 mm^2
            Peak Dynamic = 0.157713 W
            Subthreshold Leakage = 0.14636 W
            Subthreshold Leakage with power gating = 0.111096 W
            Gate Leakage = 0.000539647 W
            Runtime Dynamic = 0.0131332 W

          LoadQ:
            Area = 0.0246589 mm^2
            Peak Dynamic = 0.00279776 W
            Subthreshold Leakage = 0.00286303 W
            Subthreshold Leakage with power gating = 0.00206138 W
            Gate Leakage = 1.20553e-05 W
            Runtime Dynamic = 0.00396207 W

          StoreQ:
            Area = 0.0246589 mm^2
            Peak Dynamic = 0.00279776 W
            Subthreshold Leakage = 0.00286303 W
            Subthreshold Leakage with power gating = 0.00206138 W
            Gate Leakage = 1.20553e-05 W
            Runtime Dynamic = 0.00792414 W

      Memory Management Unit:
        Area = 0.043896 mm^2
        Peak Dynamic = 0.00414041 W
        Subthreshold Leakage = 0.00762891 W
        Subthreshold Leakage with power gating = 0.00549281 W
        Runtime Dynamic = 0.0024344 W

          Itlb:
            Area = 0.0193508 mm^2
            Peak Dynamic = 0.000852331 W
            Subthreshold Leakage = 0.00264716 W
            Subthreshold Leakage with power gating = 0.00190595 W
            Gate Leakage = 1.02204e-05 W
            Runtime Dynamic = 0 W

          Dtlb:
            Area = 0.0193508 mm^2
            Peak Dynamic = 0.000852331 W
            Subthreshold Leakage = 0.00264716 W
            Subthreshold Leakage with power gating = 0.00190595 W
            Gate Leakage = 1.02204e-05 W
            Runtime Dynamic = 0 W

      Execution Unit:
        Area = 2.26241 mm^2
        Peak Dynamic = 0.2667 W
        Subthreshold Leakage = 0.464535 W
        Subthreshold Leakage with power gating = 0.334681 W
        Runtime Dynamic = 0.191042 W

          Register Files:
            Area = 0.0382038 mm^2
            Peak Dynamic = 0.00768508 W
            Subthreshold Leakage = 0.0025063 W
            Subthreshold Leakage with power gating = 0.00192297 W
            Gate Leakage = 7.32324e-06 W
            Runtime Dynamic = 0.00187613 W

              Integer RF:
                Area = 0.0191019 mm^2
                Peak Dynamic = 0.00627354 W
                Subthreshold Leakage = 0.00125315 W
                Subthreshold Leakage with power gating = 0.000961487 W
                Gate Leakage = 3.66162e-06 W
                Runtime Dynamic = 0.000772733 W

              Floating Point RF:
                Area = 0.0191019 mm^2
                Peak Dynamic = 0.00141155 W
                Subthreshold Leakage = 0.00125315 W
                Subthreshold Leakage with power gating = 0.000961487 W
                Gate Leakage = 3.66162e-06 W
                Runtime Dynamic = 0.0011034 W

          Instruction Scheduler:
            Area = 0.019504 mm^2
            Peak Dynamic = 0.0119497 W
            Subthreshold Leakage = 0.00257155 W
            Subthreshold Leakage with power gating = 0.00194892 W
            Gate Leakage = 9.5037e-06 W
            Runtime Dynamic = 0.00429039 W

              Instruction Window:
                Area = 0.00366158 mm^2
                Peak Dynamic = 0.00196689 W
                Subthreshold Leakage = 0.000525689 W
                Subthreshold Leakage with power gating = 0.000378496 W
                Gate Leakage = 2.38857e-06 W
                Runtime Dynamic = 0.000262868 W

              FP Instruction Window:
                Area = 0.00725345 mm^2
                Peak Dynamic = 0.00351885 W
                Subthreshold Leakage = 0.000994765 W
                Subthreshold Leakage with power gating = 0.000716231 W
                Gate Leakage = 4.10066e-06 W
                Runtime Dynamic = 0.000268271 W

              ROB:
                Area = 0.008589 mm^2
                Peak Dynamic = 0.00646393 W
                Subthreshold Leakage = 0.0010511 W
                Subthreshold Leakage with power gating = 0.00085419 W
                Gate Leakage = 3.01447e-06 W
                Runtime Dynamic = 0.00375925 W

          Integer ALUs (Count: 2 ):
            Area = 0.0966854 mm^2
            Peak Dynamic = 0.0675088 W
            Subthreshold Leakage = 0.0504191 W
            Subthreshold Leakage with power gating = 0.0363018 W
            Gate Leakage = 0.000209462 W
            Runtime Dynamic = 0.0273895 W

          Floating Point Units (FPUs) (Count: 2 ):
            Area = 1.80359 mm^2
            Peak Dynamic = 0.0607579 W
            Subthreshold Leakage = 0.235132 W
            Subthreshold Leakage with power gating = 0.169295 W
            Gate Leakage = 0.000976837 W
            Runtime Dynamic = 0.10374 W

          Complex ALUs (Mul/Div) (Count: 2 ):
            Area = 0.290056 mm^2
            Peak Dynamic = 0.0405053 W
            Subthreshold Leakage = 0.151257 W
            Subthreshold Leakage with power gating = 0.108905 W
            Gate Leakage = 0.000628387 W
            Runtime Dynamic = 0.0498516 W

          Results Broadcast Bus:
            Area Overhead = 0.0091768 mm^2
            Peak Dynamic = 0.0743961 W
            Subthreshold Leakage = 0.0203144 W
            Subthreshold Leakage with power gating = 0.0146264 W
            Gate Leakage = 8.43945e-05 W
            Runtime Dynamic = 0 W

*****************************************************************************************
Core:
      Area = 6.07158 mm^2
      Peak Dynamic = 0.624587 W
      Subthreshold Leakage = 1.15465 W
      Subthreshold Leakage with power gating = 0.843503 W
      Gate Leakage = 0.0047013 W
      Runtime Dynamic = 0.216748 W

      Instruction Fetch Unit:
        Area = 0.799163 mm^2
        Peak Dynamic = 0.106036 W
        Subthreshold Leakage = 0.127446 W
        Subthreshold Leakage with power gating = 0.0976153 W
        Gate Leakage = 0.000466582 W
        Runtime Dynamic = 0.00562263 W

          Instruction Cache:
            Area = 0.726697 mm^2
            Peak Dynamic = 0.0764274 W
            Subthreshold Leakage = 0.120172 W
            Subthreshold Leakage with power gating = 0.0922399 W
            Gate Leakage = 0.000430086 W
            Runtime Dynamic = 0.00168811 W

          Branch Target Buffer:
            Area = 0.0545931 mm^2
            Peak Dynamic = 0.00214156 W
            Subthreshold Leakage = 0.00308708 W
            Subthreshold Leakage with power gating = 0.00231303 W
            Gate Leakage = 5.3839e-06 W
            Runtime Dynamic = 0 W

          Branch Predictor:
            Area = 0.00582312 mm^2
            Peak Dynamic = 0.000776521 W
            Subthreshold Leakage = 0.000420341 W
            Subthreshold Leakage with power gating = 0.000331081 W
            Gate Leakage = 2.04177e-06 W
            Runtime Dynamic = 9.00306e-06 W

              Global Predictor:
                Area = 0.000832803 mm^2
                Peak Dynamic = 6.36785e-05 W
                Subthreshold Leakage = 7.53472e-05 W
                Subthreshold Leakage with power gating = 5.95709e-05 W
                Gate Leakage = 4.18718e-07 W
                Runtime Dynamic = 2.25076e-06 W

              Local Predictor:
              L1_Local Predictor:
                Area = 0.000832803 mm^2
                Peak Dynamic = 6.36785e-05 W
                Subthreshold Leakage = 7.53472e-05 W
                Subthreshold Leakage with power gating = 5.95709e-05 W
                Gate Leakage = 4.18718e-07 W
                Runtime Dynamic = 2.25076e-06 W

              L2_Local Predictor:
                Area = 0.000832803 mm^2
                Peak Dynamic = 6.36785e-05 W
                Subthreshold Leakage = 7.53472e-05 W
                Subthreshold Leakage with power gating = 5.95709e-05 W
                Gate Leakage = 4.18718e-07 W
                Runtime Dynamic = 2.25076e-06 W

              Chooser:
                Area = 0.000832803 mm^2
                Peak Dynamic = 6.36785e-05 W
                Subthreshold Leakage = 7.53472e-05 W
                Subthreshold Leakage with power gating = 5.95709e-05 W
                Gate Leakage = 4.18718e-07 W
                Runtime Dynamic = 2.25076e-06 W

              RAS:
                Area = 0.00249191 mm^2
                Peak Dynamic = 0.000521807 W
                Subthreshold Leakage = 0.000118953 W
                Subthreshold Leakage with power gating = 9.27973e-05 W
                Gate Leakage = 3.66901e-07 W
                Runtime Dynamic = 0 W

          Instruction Buffer:
            Area = 0.00126412 mm^2
            Peak Dynamic = 0.000564263 W
            Subthreshold Leakage = 0.000165437 W
            Subthreshold Leakage with power gating = 0.000138436 W
            Gate Leakage = 6.23728e-07 W
            Runtime Dynamic = 0.000243031 W

          Instruction Decoder:
            Area = 0.00559094 mm^2
            Peak Dynamic = 0.0251521 W
            Subthreshold Leakage = 0.00126658 W
            Subthreshold Leakage with power gating = 0.000911935 W
            Gate Leakage = 4.03819e-06 W
            Runtime Dynamic = 0.00270829 W

      Renaming Unit:
        Area = 0.447495 mm^2
        Peak Dynamic = 0.0834284 W
        Subthreshold Leakage = 0.0126591 W
        Subthreshold Leakage with power gating = 0.0094832 W
        Gate Leakage = 4.96399e-05 W
        Runtime Dynamic = 0.0079773 W

          Int Front End RAT:
            Area = 0.386757 mm^2
            Peak Dynamic = 0.0653154 W
            Subthreshold Leakage = 0.00803443 W
            Subthreshold Leakage with power gating = 0.006026 W
            Gate Leakage = 1.79681e-05 W
            Runtime Dynamic = 0.00279626 W

          FP Front End RAT:
            Area = 0.0189802 mm^2
            Peak Dynamic = 0.00695576 W
            Subthreshold Leakage = 0.00110633 W
            Subthreshold Leakage with power gating = 0.000872726 W
            Gate Leakage = 2.83736e-06 W
            Runtime Dynamic = 0.00109046 W

          Free List:
            Area = 0.017316 mm^2
            Peak Dynamic = 0.00282011 W
            Subthreshold Leakage = 0.000335752 W
            Subthreshold Leakage with power gating = 0.000248143 W
            Gate Leakage = 1.18384e-06 W
            Runtime Dynamic = 0.000139794 W

          Int Retire RAT: 
            Area = 0.0125171 mm^2
            Peak Dynamic = 0.00265191 W
            Subthreshold Leakage = 0.000480545 W
            Subthreshold Leakage with power gating = 0.000362143 W
            Gate Leakage = 1.68485e-06 W
            Runtime Dynamic = 0 W

          FP Retire RAT:
            Area = 0.00184018 mm^2
            Peak Dynamic = 0.000346853 W
            Subthreshold Leakage = 0.000196824 W
            Subthreshold Leakage with power gating = 0.000161625 W
            Gate Leakage = 8.18482e-07 W
            Runtime Dynamic = 0 W

          FP Free List:
            Area = 0.00489073 mm^2
            Peak Dynamic = 0.00144117 W
            Subthreshold Leakage = 0.000170661 W
            Subthreshold Leakage with power gating = 0.000131657 W
            Gate Leakage = 7.39226e-07 W
            Runtime Dynamic = 5.4001e-05 W

      Load Store Unit:
        Area = 1.03069 mm^2
        Peak Dynamic = 0.164282 W
        Subthreshold Leakage = 0.154421 W
        Subthreshold Leakage with power gating = 0.116899 W
        Gate Leakage = 0.000588166 W
        Runtime Dynamic = 0.0194336 W

          Data Cache:
            Area = 0.882951 mm^2
            Peak Dynamic = 0.157713 W
            Subthreshold Leakage = 0.14636 W
            Subthreshold Leakage with power gating = 0.111096 W
            Gate Leakage = 0.000539647 W
            Runtime Dynamic = 0.00954023 W

          LoadQ:
            Area = 0.0246589 mm^2
            Peak Dynamic = 0.00279776 W
            Subthreshold Leakage = 0.00286303 W
            Subthreshold Leakage with power gating = 0.00206138 W
            Gate Leakage = 1.20553e-05 W
            Runtime Dynamic = 0.00297304 W

          StoreQ:
            Area = 0.0246589 mm^2
            Peak Dynamic = 0.00279776 W
            Subthreshold Leakage = 0.00286303 W
            Subthreshold Leakage with power gating = 0.00206138 W
            Gate Leakage = 1.20553e-05 W
            Runtime Dynamic = 0.00594609 W

      Memory Management Unit:
        Area = 0.043896 mm^2
        Peak Dynamic = 0.00414041 W
        Subthreshold Leakage = 0.00762891 W
        Subthreshold Leakage with power gating = 0.00549281 W
        Runtime Dynamic = 0.00243549 W

          Itlb:
            Area = 0.0193508 mm^2
            Peak Dynamic = 0.000852331 W
            Subthreshold Leakage = 0.00264716 W
            Subthreshold Leakage with power gating = 0.00190595 W
            Gate Leakage = 1.02204e-05 W
            Runtime Dynamic = 0 W

          Dtlb:
            Area = 0.0193508 mm^2
            Peak Dynamic = 0.000852331 W
            Subthreshold Leakage = 0.00264716 W
            Subthreshold Leakage with power gating = 0.00190595 W
            Gate Leakage = 1.02204e-05 W
            Runtime Dynamic = 0 W

      Execution Unit:
        Area = 2.26241 mm^2
        Peak Dynamic = 0.2667 W
        Subthreshold Leakage = 0.464535 W
        Subthreshold Leakage with power gating = 0.334681 W
        Runtime Dynamic = 0.181279 W

          Register Files:
            Area = 0.0382038 mm^2
            Peak Dynamic = 0.00768508 W
            Subthreshold Leakage = 0.0025063 W
            Subthreshold Leakage with power gating = 0.00192297 W
            Gate Leakage = 7.32324e-06 W
            Runtime Dynamic = 0.00139772 W

              Integer RF:
                Area = 0.0191019 mm^2
                Peak Dynamic = 0.00627354 W
                Subthreshold Leakage = 0.00125315 W
                Subthreshold Leakage with power gating = 0.000961487 W
                Gate Leakage = 3.66162e-06 W
                Runtime Dynamic = 0.000615556 W

              Floating Point RF:
                Area = 0.0191019 mm^2
                Peak Dynamic = 0.00141155 W
                Subthreshold Leakage = 0.00125315 W
                Subthreshold Leakage with power gating = 0.000961487 W
                Gate Leakage = 3.66162e-06 W
                Runtime Dynamic = 0.000782166 W

          Instruction Scheduler:
            Area = 0.019504 mm^2
            Peak Dynamic = 0.0119497 W
            Subthreshold Leakage = 0.00257155 W
            Subthreshold Leakage with power gating = 0.00194892 W
            Gate Leakage = 9.5037e-06 W
            Runtime Dynamic = 0.00362924 W

              Instruction Window:
                Area = 0.00366158 mm^2
                Peak Dynamic = 0.00196689 W
                Subthreshold Leakage = 0.000525689 W
                Subthreshold Leakage with power gating = 0.000378496 W
                Gate Leakage = 2.38857e-06 W
                Runtime Dynamic = 0.000203184 W

              FP Instruction Window:
                Area = 0.00725345 mm^2
                Peak Dynamic = 0.00351885 W
                Subthreshold Leakage = 0.000994765 W
                Subthreshold Leakage with power gating = 0.000716231 W
                Gate Leakage = 4.10066e-06 W
                Runtime Dynamic = 0.000190191 W

              ROB:
                Area = 0.008589 mm^2
                Peak Dynamic = 0.00646393 W
                Subthreshold Leakage = 0.0010511 W
                Subthreshold Leakage with power gating = 0.00085419 W
                Gate Leakage = 3.01447e-06 W
                Runtime Dynamic = 0.00323587 W

          Integer ALUs (Count: 2 ):
            Area = 0.0966854 mm^2
            Peak Dynamic = 0.0675088 W
            Subthreshold Leakage = 0.0504191 W
            Subthreshold Leakage with power gating = 0.0363018 W
            Gate Leakage = 0.000209462 W
            Runtime Dynamic = 0.0270841 W

          Floating Point Units (FPUs) (Count: 2 ):
            Area = 1.80359 mm^2
            Peak Dynamic = 0.0607579 W
            Subthreshold Leakage = 0.235132 W
            Subthreshold Leakage with power gating = 0.169295 W
            Gate Leakage = 0.000976837 W
            Runtime Dynamic = 0.0953929 W

          Complex ALUs (Mul/Div) (Count: 2 ):
            Area = 0.290056 mm^2
            Peak Dynamic = 0.0405053 W
            Subthreshold Leakage = 0.151257 W
            Subthreshold Leakage with power gating = 0.108905 W
            Gate Leakage = 0.000628387 W
            Runtime Dynamic = 0.0498786 W

          Results Broadcast Bus:
            Area Overhead = 0.0091768 mm^2
            Peak Dynamic = 0.0743961 W
            Subthreshold Leakage = 0.0203144 W
            Subthreshold Leakage with power gating = 0.0146264 W
            Gate Leakage = 8.43945e-05 W
            Runtime Dynamic = 0 W

*****************************************************************************************
Core:
      Area = 6.07158 mm^2
      Peak Dynamic = 0.624587 W
      Subthreshold Leakage = 1.15465 W
      Subthreshold Leakage with power gating = 0.843503 W
      Gate Leakage = 0.0047013 W
      Runtime Dynamic = 0.213338 W

      Instruction Fetch Unit:
        Area = 0.799163 mm^2
        Peak Dynamic = 0.106036 W
        Subthreshold Leakage = 0.127446 W
        Subthreshold Leakage with power gating = 0.0976153 W
        Gate Leakage = 0.000466582 W
        Runtime Dynamic = 0.00542738 W

          Instruction Cache:
            Area = 0.726697 mm^2
            Peak Dynamic = 0.0764274 W
            Subthreshold Leakage = 0.120172 W
            Subthreshold Leakage with power gating = 0.0922399 W
            Gate Leakage = 0.000430086 W
            Runtime Dynamic = 0.00167107 W

          Branch Target Buffer:
            Area = 0.0545931 mm^2
            Peak Dynamic = 0.00214156 W
            Subthreshold Leakage = 0.00308708 W
            Subthreshold Leakage with power gating = 0.00231303 W
            Gate Leakage = 5.3839e-06 W
            Runtime Dynamic = 0 W

          Branch Predictor:
            Area = 0.00582312 mm^2
            Peak Dynamic = 0.000776521 W
            Subthreshold Leakage = 0.000420341 W
            Subthreshold Leakage with power gating = 0.000331081 W
            Gate Leakage = 2.04177e-06 W
            Runtime Dynamic = 9.11375e-06 W

              Global Predictor:
                Area = 0.000832803 mm^2
                Peak Dynamic = 6.36785e-05 W
                Subthreshold Leakage = 7.53472e-05 W
                Subthreshold Leakage with power gating = 5.95709e-05 W
                Gate Leakage = 4.18718e-07 W
                Runtime Dynamic = 2.27844e-06 W

              Local Predictor:
              L1_Local Predictor:
                Area = 0.000832803 mm^2
                Peak Dynamic = 6.36785e-05 W
                Subthreshold Leakage = 7.53472e-05 W
                Subthreshold Leakage with power gating = 5.95709e-05 W
                Gate Leakage = 4.18718e-07 W
                Runtime Dynamic = 2.27844e-06 W

              L2_Local Predictor:
                Area = 0.000832803 mm^2
                Peak Dynamic = 6.36785e-05 W
                Subthreshold Leakage = 7.53472e-05 W
                Subthreshold Leakage with power gating = 5.95709e-05 W
                Gate Leakage = 4.18718e-07 W
                Runtime Dynamic = 2.27844e-06 W

              Chooser:
                Area = 0.000832803 mm^2
                Peak Dynamic = 6.36785e-05 W
                Subthreshold Leakage = 7.53472e-05 W
                Subthreshold Leakage with power gating = 5.95709e-05 W
                Gate Leakage = 4.18718e-07 W
                Runtime Dynamic = 2.27844e-06 W

              RAS:
                Area = 0.00249191 mm^2
                Peak Dynamic = 0.000521807 W
                Subthreshold Leakage = 0.000118953 W
                Subthreshold Leakage with power gating = 9.27973e-05 W
                Gate Leakage = 3.66901e-07 W
                Runtime Dynamic = 0 W

          Instruction Buffer:
            Area = 0.00126412 mm^2
            Peak Dynamic = 0.000564263 W
            Subthreshold Leakage = 0.000165437 W
            Subthreshold Leakage with power gating = 0.000138436 W
            Gate Leakage = 6.23728e-07 W
            Runtime Dynamic = 0.000228346 W

          Instruction Decoder:
            Area = 0.00559094 mm^2
            Peak Dynamic = 0.0251521 W
            Subthreshold Leakage = 0.00126658 W
            Subthreshold Leakage with power gating = 0.000911935 W
            Gate Leakage = 4.03819e-06 W
            Runtime Dynamic = 0.00254464 W

      Renaming Unit:
        Area = 0.447495 mm^2
        Peak Dynamic = 0.0834284 W
        Subthreshold Leakage = 0.0126591 W
        Subthreshold Leakage with power gating = 0.0094832 W
        Gate Leakage = 4.96399e-05 W
        Runtime Dynamic = 0.00776808 W

          Int Front End RAT:
            Area = 0.386757 mm^2
            Peak Dynamic = 0.0653154 W
            Subthreshold Leakage = 0.00803443 W
            Subthreshold Leakage with power gating = 0.006026 W
            Gate Leakage = 1.79681e-05 W
            Runtime Dynamic = 0.00267933 W

          FP Front End RAT:
            Area = 0.0189802 mm^2
            Peak Dynamic = 0.00695576 W
            Subthreshold Leakage = 0.00110633 W
            Subthreshold Leakage with power gating = 0.000872726 W
            Gate Leakage = 2.83736e-06 W
            Runtime Dynamic = 0.00100805 W

          Free List:
            Area = 0.017316 mm^2
            Peak Dynamic = 0.00282011 W
            Subthreshold Leakage = 0.000335752 W
            Subthreshold Leakage with power gating = 0.000248143 W
            Gate Leakage = 1.18384e-06 W
            Runtime Dynamic = 0.000133948 W

          Int Retire RAT: 
            Area = 0.0125171 mm^2
            Peak Dynamic = 0.00265191 W
            Subthreshold Leakage = 0.000480545 W
            Subthreshold Leakage with power gating = 0.000362143 W
            Gate Leakage = 1.68485e-06 W
            Runtime Dynamic = 0 W

          FP Retire RAT:
            Area = 0.00184018 mm^2
            Peak Dynamic = 0.000346853 W
            Subthreshold Leakage = 0.000196824 W
            Subthreshold Leakage with power gating = 0.000161625 W
            Gate Leakage = 8.18482e-07 W
            Runtime Dynamic = 0 W

          FP Free List:
            Area = 0.00489073 mm^2
            Peak Dynamic = 0.00144117 W
            Subthreshold Leakage = 0.000170661 W
            Subthreshold Leakage with power gating = 0.000131657 W
            Gate Leakage = 7.39226e-07 W
            Runtime Dynamic = 4.99198e-05 W

      Load Store Unit:
        Area = 1.03069 mm^2
        Peak Dynamic = 0.164282 W
        Subthreshold Leakage = 0.154421 W
        Subthreshold Leakage with power gating = 0.116899 W
        Gate Leakage = 0.000588166 W
        Runtime Dynamic = 0.0182334 W

          Data Cache:
            Area = 0.882951 mm^2
            Peak Dynamic = 0.157713 W
            Subthreshold Leakage = 0.14636 W
            Subthreshold Leakage with power gating = 0.111096 W
            Gate Leakage = 0.000539647 W
            Runtime Dynamic = 0.00887015 W

          LoadQ:
            Area = 0.0246589 mm^2
            Peak Dynamic = 0.00279776 W
            Subthreshold Leakage = 0.00286303 W
            Subthreshold Leakage with power gating = 0.00206138 W
            Gate Leakage = 1.20553e-05 W
            Runtime Dynamic = 0.00279635 W

          StoreQ:
            Area = 0.0246589 mm^2
            Peak Dynamic = 0.00279776 W
            Subthreshold Leakage = 0.00286303 W
            Subthreshold Leakage with power gating = 0.00206138 W
            Gate Leakage = 1.20553e-05 W
            Runtime Dynamic = 0.00559269 W

      Memory Management Unit:
        Area = 0.043896 mm^2
        Peak Dynamic = 0.00414041 W
        Subthreshold Leakage = 0.00762891 W
        Subthreshold Leakage with power gating = 0.00549281 W
        Runtime Dynamic = 0.00243552 W

          Itlb:
            Area = 0.0193508 mm^2
            Peak Dynamic = 0.000852331 W
            Subthreshold Leakage = 0.00264716 W
            Subthreshold Leakage with power gating = 0.00190595 W
            Gate Leakage = 1.02204e-05 W
            Runtime Dynamic = 0 W

          Dtlb:
            Area = 0.0193508 mm^2
            Peak Dynamic = 0.000852331 W
            Subthreshold Leakage = 0.00264716 W
            Subthreshold Leakage with power gating = 0.00190595 W
            Gate Leakage = 1.02204e-05 W
            Runtime Dynamic = 0 W

      Execution Unit:
        Area = 2.26241 mm^2
        Peak Dynamic = 0.2667 W
        Subthreshold Leakage = 0.464535 W
        Subthreshold Leakage with power gating = 0.334681 W
        Runtime Dynamic = 0.179474 W

          Register Files:
            Area = 0.0382038 mm^2
            Peak Dynamic = 0.00768508 W
            Subthreshold Leakage = 0.0025063 W
            Subthreshold Leakage with power gating = 0.00192297 W
            Gate Leakage = 7.32324e-06 W
            Runtime Dynamic = 0.00130226 W

              Integer RF:
                Area = 0.0191019 mm^2
                Peak Dynamic = 0.00627354 W
                Subthreshold Leakage = 0.00125315 W
                Subthreshold Leakage with power gating = 0.000961487 W
                Gate Leakage = 3.66162e-06 W
                Runtime Dynamic = 0.000581137 W

              Floating Point RF:
                Area = 0.0191019 mm^2
                Peak Dynamic = 0.00141155 W
                Subthreshold Leakage = 0.00125315 W
                Subthreshold Leakage with power gating = 0.000961487 W
                Gate Leakage = 3.66162e-06 W
                Runtime Dynamic = 0.000721119 W

          Instruction Scheduler:
            Area = 0.019504 mm^2
            Peak Dynamic = 0.0119497 W
            Subthreshold Leakage = 0.00257155 W
            Subthreshold Leakage with power gating = 0.00194892 W
            Gate Leakage = 9.5037e-06 W
            Runtime Dynamic = 0.00350783 W

              Instruction Window:
                Area = 0.00366158 mm^2
                Peak Dynamic = 0.00196689 W
                Subthreshold Leakage = 0.000525689 W
                Subthreshold Leakage with power gating = 0.000378496 W
                Gate Leakage = 2.38857e-06 W
                Runtime Dynamic = 0.000190747 W

              FP Instruction Window:
                Area = 0.00725345 mm^2
                Peak Dynamic = 0.00351885 W
                Subthreshold Leakage = 0.000994765 W
                Subthreshold Leakage with power gating = 0.000716231 W
                Gate Leakage = 4.10066e-06 W
                Runtime Dynamic = 0.000175122 W

              ROB:
                Area = 0.008589 mm^2
                Peak Dynamic = 0.00646393 W
                Subthreshold Leakage = 0.0010511 W
                Subthreshold Leakage with power gating = 0.00085419 W
                Gate Leakage = 3.01447e-06 W
                Runtime Dynamic = 0.00314196 W

          Integer ALUs (Count: 2 ):
            Area = 0.0966854 mm^2
            Peak Dynamic = 0.0675088 W
            Subthreshold Leakage = 0.0504191 W
            Subthreshold Leakage with power gating = 0.0363018 W
            Gate Leakage = 0.000209462 W
            Runtime Dynamic = 0.0269827 W

          Floating Point Units (FPUs) (Count: 2 ):
            Area = 1.80359 mm^2
            Peak Dynamic = 0.0607579 W
            Subthreshold Leakage = 0.235132 W
            Subthreshold Leakage with power gating = 0.169295 W
            Gate Leakage = 0.000976837 W
            Runtime Dynamic = 0.0938957 W

          Complex ALUs (Mul/Div) (Count: 2 ):
            Area = 0.290056 mm^2
            Peak Dynamic = 0.0405053 W
            Subthreshold Leakage = 0.151257 W
            Subthreshold Leakage with power gating = 0.108905 W
            Gate Leakage = 0.000628387 W
            Runtime Dynamic = 0.0498883 W

          Results Broadcast Bus:
            Area Overhead = 0.0091768 mm^2
            Peak Dynamic = 0.0743961 W
            Subthreshold Leakage = 0.0203144 W
            Subthreshold Leakage with power gating = 0.0146264 W
            Gate Leakage = 8.43945e-05 W
            Runtime Dynamic = 0 W

*****************************************************************************************
Core:
      Area = 6.07158 mm^2
      Peak Dynamic = 0.624587 W
      Subthreshold Leakage = 1.15465 W
      Subthreshold Leakage with power gating = 0.843503 W
      Gate Leakage = 0.0047013 W
      Runtime Dynamic = 0.213927 W

      Instruction Fetch Unit:
        Area = 0.799163 mm^2
        Peak Dynamic = 0.106036 W
        Subthreshold Leakage = 0.127446 W
        Subthreshold Leakage with power gating = 0.0976153 W
        Gate Leakage = 0.000466582 W
        Runtime Dynamic = 0.00549129 W

          Instruction Cache:
            Area = 0.726697 mm^2
            Peak Dynamic = 0.0764274 W
            Subthreshold Leakage = 0.120172 W
            Subthreshold Leakage with power gating = 0.0922399 W
            Gate Leakage = 0.000430086 W
            Runtime Dynamic = 0.00168865 W

          Branch Target Buffer:
            Area = 0.0545931 mm^2
            Peak Dynamic = 0.00214156 W
            Subthreshold Leakage = 0.00308708 W
            Subthreshold Leakage with power gating = 0.00231303 W
            Gate Leakage = 5.3839e-06 W
            Runtime Dynamic = 0 W

          Branch Predictor:
            Area = 0.00582312 mm^2
            Peak Dynamic = 0.000776521 W
            Subthreshold Leakage = 0.000420341 W
            Subthreshold Leakage with power gating = 0.000331081 W
            Gate Leakage = 2.04177e-06 W
            Runtime Dynamic = 9.36912e-06 W

              Global Predictor:
                Area = 0.000832803 mm^2
                Peak Dynamic = 6.36785e-05 W
                Subthreshold Leakage = 7.53472e-05 W
                Subthreshold Leakage with power gating = 5.95709e-05 W
                Gate Leakage = 4.18718e-07 W
                Runtime Dynamic = 2.34228e-06 W

              Local Predictor:
              L1_Local Predictor:
                Area = 0.000832803 mm^2
                Peak Dynamic = 6.36785e-05 W
                Subthreshold Leakage = 7.53472e-05 W
                Subthreshold Leakage with power gating = 5.95709e-05 W
                Gate Leakage = 4.18718e-07 W
                Runtime Dynamic = 2.34228e-06 W

              L2_Local Predictor:
                Area = 0.000832803 mm^2
                Peak Dynamic = 6.36785e-05 W
                Subthreshold Leakage = 7.53472e-05 W
                Subthreshold Leakage with power gating = 5.95709e-05 W
                Gate Leakage = 4.18718e-07 W
                Runtime Dynamic = 2.34228e-06 W

              Chooser:
                Area = 0.000832803 mm^2
                Peak Dynamic = 6.36785e-05 W
                Subthreshold Leakage = 7.53472e-05 W
                Subthreshold Leakage with power gating = 5.95709e-05 W
                Gate Leakage = 4.18718e-07 W
                Runtime Dynamic = 2.34228e-06 W

              RAS:
                Area = 0.00249191 mm^2
                Peak Dynamic = 0.000521807 W
                Subthreshold Leakage = 0.000118953 W
                Subthreshold Leakage with power gating = 9.27973e-05 W
                Gate Leakage = 3.66901e-07 W
                Runtime Dynamic = 0 W

          Instruction Buffer:
            Area = 0.00126412 mm^2
            Peak Dynamic = 0.000564263 W
            Subthreshold Leakage = 0.000165437 W
            Subthreshold Leakage with power gating = 0.000138436 W
            Gate Leakage = 6.23728e-07 W
            Runtime Dynamic = 0.000232141 W

          Instruction Decoder:
            Area = 0.00559094 mm^2
            Peak Dynamic = 0.0251521 W
            Subthreshold Leakage = 0.00126658 W
            Subthreshold Leakage with power gating = 0.000911935 W
            Gate Leakage = 4.03819e-06 W
            Runtime Dynamic = 0.00258692 W

      Renaming Unit:
        Area = 0.447495 mm^2
        Peak Dynamic = 0.0834284 W
        Subthreshold Leakage = 0.0126591 W
        Subthreshold Leakage with power gating = 0.0094832 W
        Gate Leakage = 4.96399e-05 W
        Runtime Dynamic = 0.0078424 W

          Int Front End RAT:
            Area = 0.386757 mm^2
            Peak Dynamic = 0.0653154 W
            Subthreshold Leakage = 0.00803443 W
            Subthreshold Leakage with power gating = 0.006026 W
            Gate Leakage = 1.79681e-05 W
            Runtime Dynamic = 0.0027392 W

          FP Front End RAT:
            Area = 0.0189802 mm^2
            Peak Dynamic = 0.00695576 W
            Subthreshold Leakage = 0.00110633 W
            Subthreshold Leakage with power gating = 0.000872726 W
            Gate Leakage = 2.83736e-06 W
            Runtime Dynamic = 0.00101897 W

          Free List:
            Area = 0.017316 mm^2
            Peak Dynamic = 0.00282011 W
            Subthreshold Leakage = 0.000335752 W
            Subthreshold Leakage with power gating = 0.000248143 W
            Gate Leakage = 1.18384e-06 W
            Runtime Dynamic = 0.000136941 W

          Int Retire RAT: 
            Area = 0.0125171 mm^2
            Peak Dynamic = 0.00265191 W
            Subthreshold Leakage = 0.000480545 W
            Subthreshold Leakage with power gating = 0.000362143 W
            Gate Leakage = 1.68485e-06 W
            Runtime Dynamic = 0 W

          FP Retire RAT:
            Area = 0.00184018 mm^2
            Peak Dynamic = 0.000346853 W
            Subthreshold Leakage = 0.000196824 W
            Subthreshold Leakage with power gating = 0.000161625 W
            Gate Leakage = 8.18482e-07 W
            Runtime Dynamic = 0 W

          FP Free List:
            Area = 0.00489073 mm^2
            Peak Dynamic = 0.00144117 W
            Subthreshold Leakage = 0.000170661 W
            Subthreshold Leakage with power gating = 0.000131657 W
            Gate Leakage = 7.39226e-07 W
            Runtime Dynamic = 5.04608e-05 W

      Load Store Unit:
        Area = 1.03069 mm^2
        Peak Dynamic = 0.164282 W
        Subthreshold Leakage = 0.154421 W
        Subthreshold Leakage with power gating = 0.116899 W
        Gate Leakage = 0.000588166 W
        Runtime Dynamic = 0.0183884 W

          Data Cache:
            Area = 0.882951 mm^2
            Peak Dynamic = 0.157713 W
            Subthreshold Leakage = 0.14636 W
            Subthreshold Leakage with power gating = 0.111096 W
            Gate Leakage = 0.000539647 W
            Runtime Dynamic = 0.00896856 W

          LoadQ:
            Area = 0.0246589 mm^2
            Peak Dynamic = 0.00279776 W
            Subthreshold Leakage = 0.00286303 W
            Subthreshold Leakage with power gating = 0.00206138 W
            Gate Leakage = 1.20553e-05 W
            Runtime Dynamic = 0.00281522 W

          StoreQ:
            Area = 0.0246589 mm^2
            Peak Dynamic = 0.00279776 W
            Subthreshold Leakage = 0.00286303 W
            Subthreshold Leakage with power gating = 0.00206138 W
            Gate Leakage = 1.20553e-05 W
            Runtime Dynamic = 0.00563044 W

      Memory Management Unit:
        Area = 0.043896 mm^2
        Peak Dynamic = 0.00414041 W
        Subthreshold Leakage = 0.00762891 W
        Subthreshold Leakage with power gating = 0.00549281 W
        Runtime Dynamic = 0.00243552 W

          Itlb:
            Area = 0.0193508 mm^2
            Peak Dynamic = 0.000852331 W
            Subthreshold Leakage = 0.00264716 W
            Subthreshold Leakage with power gating = 0.00190595 W
            Gate Leakage = 1.02204e-05 W
            Runtime Dynamic = 0 W

          Dtlb:
            Area = 0.0193508 mm^2
            Peak Dynamic = 0.000852331 W
            Subthreshold Leakage = 0.00264716 W
            Subthreshold Leakage with power gating = 0.00190595 W
            Gate Leakage = 1.02204e-05 W
            Runtime Dynamic = 0 W

      Execution Unit:
        Area = 2.26241 mm^2
        Peak Dynamic = 0.2667 W
        Subthreshold Leakage = 0.464535 W
        Subthreshold Leakage with power gating = 0.334681 W
        Runtime Dynamic = 0.17977 W

          Register Files:
            Area = 0.0382038 mm^2
            Peak Dynamic = 0.00768508 W
            Subthreshold Leakage = 0.0025063 W
            Subthreshold Leakage with power gating = 0.00192297 W
            Gate Leakage = 7.32324e-06 W
            Runtime Dynamic = 0.00132838 W

              Integer RF:
                Area = 0.0191019 mm^2
                Peak Dynamic = 0.00627354 W
                Subthreshold Leakage = 0.00125315 W
                Subthreshold Leakage with power gating = 0.000961487 W
                Gate Leakage = 3.66162e-06 W
                Runtime Dynamic = 0.000597267 W

              Floating Point RF:
                Area = 0.0191019 mm^2
                Peak Dynamic = 0.00141155 W
                Subthreshold Leakage = 0.00125315 W
                Subthreshold Leakage with power gating = 0.000961487 W
                Gate Leakage = 3.66162e-06 W
                Runtime Dynamic = 0.000731116 W

          Instruction Scheduler:
            Area = 0.019504 mm^2
            Peak Dynamic = 0.0119497 W
            Subthreshold Leakage = 0.00257155 W
            Subthreshold Leakage with power gating = 0.00194892 W
            Gate Leakage = 9.5037e-06 W
            Runtime Dynamic = 0.00354567 W

              Instruction Window:
                Area = 0.00366158 mm^2
                Peak Dynamic = 0.00196689 W
                Subthreshold Leakage = 0.000525689 W
                Subthreshold Leakage with power gating = 0.000378496 W
                Gate Leakage = 2.38857e-06 W
                Runtime Dynamic = 0.000194736 W

              FP Instruction Window:
                Area = 0.00725345 mm^2
                Peak Dynamic = 0.00351885 W
                Subthreshold Leakage = 0.000994765 W
                Subthreshold Leakage with power gating = 0.000716231 W
                Gate Leakage = 4.10066e-06 W
                Runtime Dynamic = 0.000177826 W

              ROB:
                Area = 0.008589 mm^2
                Peak Dynamic = 0.00646393 W
                Subthreshold Leakage = 0.0010511 W
                Subthreshold Leakage with power gating = 0.00085419 W
                Gate Leakage = 3.01447e-06 W
                Runtime Dynamic = 0.00317311 W

          Integer ALUs (Count: 2 ):
            Area = 0.0966854 mm^2
            Peak Dynamic = 0.0675088 W
            Subthreshold Leakage = 0.0504191 W
            Subthreshold Leakage with power gating = 0.0363018 W
            Gate Leakage = 0.000209462 W
            Runtime Dynamic = 0.0270626 W

          Floating Point Units (FPUs) (Count: 2 ):
            Area = 1.80359 mm^2
            Peak Dynamic = 0.0607579 W
            Subthreshold Leakage = 0.235132 W
            Subthreshold Leakage with power gating = 0.169295 W
            Gate Leakage = 0.000976837 W
            Runtime Dynamic = 0.0940492 W

          Complex ALUs (Mul/Div) (Count: 2 ):
            Area = 0.290056 mm^2
            Peak Dynamic = 0.0405053 W
            Subthreshold Leakage = 0.151257 W
            Subthreshold Leakage with power gating = 0.108905 W
            Gate Leakage = 0.000628387 W
            Runtime Dynamic = 0.0498869 W

          Results Broadcast Bus:
            Area Overhead = 0.0091768 mm^2
            Peak Dynamic = 0.0743961 W
            Subthreshold Leakage = 0.0203144 W
            Subthreshold Leakage with power gating = 0.0146264 W
            Gate Leakage = 8.43945e-05 W
            Runtime Dynamic = 0 W

*****************************************************************************************
Core:
      Area = 3.68846 mm^2
      Peak Dynamic = 0.356579 W
      Subthreshold Leakage = 0.598087 W
      Subthreshold Leakage with power gating = 0.43124 W
      Gate Leakage = 0.00306614 W
      Runtime Dynamic = 0.0415413 W

      Instruction Fetch Unit:
        Area = 0.657112 mm^2
        Peak Dynamic = 0.0841372 W
        Subthreshold Leakage = 0.0798172 W
        Subthreshold Leakage with power gating = 0.0578269 W
        Gate Leakage = 0.000409326 W
        Runtime Dynamic = 0.0116284 W

          Instruction Cache:
            Area = 0.588595 mm^2
            Peak Dynamic = 0.0733869 W
            Subthreshold Leakage = 0.0736664 W
            Subthreshold Leakage with power gating = 0.0532972 W
            Gate Leakage = 0.000368313 W
            Runtime Dynamic = 0.00893918 W

          Branch Target Buffer:
            Area = 0.0545931 mm^2
            Peak Dynamic = 0.00214156 W
            Subthreshold Leakage = 0.00255165 W
            Subthreshold Leakage with power gating = 0.00191185 W
            Gate Leakage = 5.3839e-06 W
            Runtime Dynamic = 0 W

          Branch Predictor:
            Area = 0.00582312 mm^2
            Peak Dynamic = 0.000776521 W
            Subthreshold Leakage = 0.000347436 W
            Subthreshold Leakage with power gating = 0.000273657 W
            Gate Leakage = 2.04177e-06 W
            Runtime Dynamic = 5.11029e-06 W

              Global Predictor:
                Area = 0.000832803 mm^2
                Peak Dynamic = 6.36785e-05 W
                Subthreshold Leakage = 6.22787e-05 W
                Subthreshold Leakage with power gating = 4.92388e-05 W
                Gate Leakage = 4.18718e-07 W
                Runtime Dynamic = 1.27757e-06 W

              Local Predictor:
              L1_Local Predictor:
                Area = 0.000832803 mm^2
                Peak Dynamic = 6.36785e-05 W
                Subthreshold Leakage = 6.22787e-05 W
                Subthreshold Leakage with power gating = 4.92388e-05 W
                Gate Leakage = 4.18718e-07 W
                Runtime Dynamic = 1.27757e-06 W

              L2_Local Predictor:
                Area = 0.000832803 mm^2
                Peak Dynamic = 6.36785e-05 W
                Subthreshold Leakage = 6.22787e-05 W
                Subthreshold Leakage with power gating = 4.92388e-05 W
                Gate Leakage = 4.18718e-07 W
                Runtime Dynamic = 1.27757e-06 W

              Chooser:
                Area = 0.000832803 mm^2
                Peak Dynamic = 6.36785e-05 W
                Subthreshold Leakage = 6.22787e-05 W
                Subthreshold Leakage with power gating = 4.92388e-05 W
                Gate Leakage = 4.18718e-07 W
                Runtime Dynamic = 1.27757e-06 W

              RAS:
                Area = 0.00249191 mm^2
                Peak Dynamic = 0.000521807 W
                Subthreshold Leakage = 9.83212e-05 W
                Subthreshold Leakage with power gating = 7.67022e-05 W
                Gate Leakage = 3.66901e-07 W
                Runtime Dynamic = 0 W

          Instruction Buffer:
            Area = 0.000562161 mm^2
            Peak Dynamic = 0.000337116 W
            Subthreshold Leakage = 3.89329e-05 W
            Subthreshold Leakage with power gating = 3.11228e-05 W
            Gate Leakage = 1.47028e-07 W
            Runtime Dynamic = 7.50786e-05 W

          Instruction Decoder:
            Area = 0.0010919 mm^2
            Peak Dynamic = 0.00628601 W
            Subthreshold Leakage = 0.000818074 W
            Subthreshold Leakage with power gating = 0.000589013 W
            Gate Leakage = 3.15098e-06 W
            Runtime Dynamic = 0.00139995 W

      Load Store Unit:
        Area = 0.852905 mm^2
        Peak Dynamic = 0.157824 W
        Subthreshold Leakage = 0.100074 W
        Subthreshold Leakage with power gating = 0.0723104 W
        Gate Leakage = 0.000520218 W
        Runtime Dynamic = 0.00828338 W

          Data Cache:
            Area = 0.744849 mm^2
            Peak Dynamic = 0.153817 W
            Subthreshold Leakage = 0.0953126 W
            Subthreshold Leakage with power gating = 0.0688824 W
            Gate Leakage = 0.000477874 W
            Runtime Dynamic = 0.00425542 W

          Load/Store Queue:
            Area = 0.0246589 mm^2
            Peak Dynamic = 0.00279776 W
            Subthreshold Leakage = 0.00236645 W
            Subthreshold Leakage with power gating = 0.00170385 W
            Gate Leakage = 1.20553e-05 W
            Runtime Dynamic = 0.0028189 W

      Memory Management Unit:
        Area = 0.0451477 mm^2
        Peak Dynamic = 0.00472733 W
        Subthreshold Leakage = 0.0067707 W
        Subthreshold Leakage with power gating = 0.0048749 W
        Runtime Dynamic = 0.00302266 W

          Itlb:
            Area = 0.0193508 mm^2
            Peak Dynamic = 0.000852331 W
            Subthreshold Leakage = 0.00218803 W
            Subthreshold Leakage with power gating = 0.00157538 W
            Gate Leakage = 1.02204e-05 W
            Runtime Dynamic = 0 W

          Dtlb:
            Area = 0.0193508 mm^2
            Peak Dynamic = 0.000852331 W
            Subthreshold Leakage = 0.00218803 W
            Subthreshold Leakage with power gating = 0.00157538 W
            Gate Leakage = 1.02204e-05 W
            Runtime Dynamic = 0 W

      Execution Unit:
        Area = 1.12881 mm^2
        Peak Dynamic = 0.10989 W
        Subthreshold Leakage = 0.194945 W
        Subthreshold Leakage with power gating = 0.140361 W
        Runtime Dynamic = 0.0186069 W

          Register Files:
            Area = 0.0209859 mm^2
            Peak Dynamic = 0.00440725 W
            Subthreshold Leakage = 0.000506267 W
            Subthreshold Leakage with power gating = 0.000365682 W
            Gate Leakage = 2.25559e-06 W
            Runtime Dynamic = 0.000581223 W

              Integer RF:
                Area = 0.0104929 mm^2
                Peak Dynamic = 0.00359776 W
                Subthreshold Leakage = 0.000253133 W
                Subthreshold Leakage with power gating = 0.000182841 W
                Gate Leakage = 1.1278e-06 W
                Runtime Dynamic = 0.000334352 W

              Floating Point RF:
                Area = 0.0104929 mm^2
                Peak Dynamic = 0.000809495 W
                Subthreshold Leakage = 0.000253133 W
                Subthreshold Leakage with power gating = 0.000182841 W
                Gate Leakage = 1.1278e-06 W
                Runtime Dynamic = 0.000246871 W

          Instruction Scheduler:
            Area = 0 mm^2
            Peak Dynamic = 0 W
            Subthreshold Leakage = 0 W
            Subthreshold Leakage with power gating = 0 W
            Gate Leakage = 0 W
            Runtime Dynamic = 0 W

          Integer ALUs (Count: 1 ):
            Area = 0.0483427 mm^2
            Peak Dynamic = 0.0213111 W
            Subthreshold Leakage = 0.0208371 W
            Subthreshold Leakage with power gating = 0.0150027 W
            Gate Leakage = 0.000104731 W
            Runtime Dynamic = 0.0037185 W

          Floating Point Units (FPUs) (Count: 1 ):
            Area = 0.901794 mm^2
            Peak Dynamic = 0.01918 W
            Subthreshold Leakage = 0.0971749 W
            Subthreshold Leakage with power gating = 0.0699659 W
            Gate Leakage = 0.000488418 W
            Runtime Dynamic = 0.00940792 W

          Complex ALUs (Mul/Div) (Count: 1 ):
            Area = 0.145028 mm^2
            Peak Dynamic = 0.0127866 W
            Subthreshold Leakage = 0.0625114 W
            Subthreshold Leakage with power gating = 0.0450082 W
            Gate Leakage = 0.000314193 W
            Runtime Dynamic = 6.30358e-05 W

          Results Broadcast Bus:
            Area Overhead = 0.00621299 mm^2
            Peak Dynamic = 0.047369 W
            Subthreshold Leakage = 0.0115202 W
            Subthreshold Leakage with power gating = 0.00829458 W
            Gate Leakage = 5.79028e-05 W
            Runtime Dynamic = 0 W

*****************************************************************************************
Core:
      Area = 3.68846 mm^2
      Peak Dynamic = 0.356579 W
      Subthreshold Leakage = 0.598087 W
      Subthreshold Leakage with power gating = 0.43124 W
      Gate Leakage = 0.00306614 W
      Runtime Dynamic = 0.0418899 W

      Instruction Fetch Unit:
        Area = 0.657112 mm^2
        Peak Dynamic = 0.0841372 W
        Subthreshold Leakage = 0.0798172 W
        Subthreshold Leakage with power gating = 0.0578269 W
        Gate Leakage = 0.000409326 W
        Runtime Dynamic = 0.0117703 W

          Instruction Cache:
            Area = 0.588595 mm^2
            Peak Dynamic = 0.0733869 W
            Subthreshold Leakage = 0.0736664 W
            Subthreshold Leakage with power gating = 0.0532972 W
            Gate Leakage = 0.000368313 W
            Runtime Dynamic = 0.00906143 W

          Branch Target Buffer:
            Area = 0.0545931 mm^2
            Peak Dynamic = 0.00214156 W
            Subthreshold Leakage = 0.00255165 W
            Subthreshold Leakage with power gating = 0.00191185 W
            Gate Leakage = 5.3839e-06 W
            Runtime Dynamic = 0 W

          Branch Predictor:
            Area = 0.00582312 mm^2
            Peak Dynamic = 0.000776521 W
            Subthreshold Leakage = 0.000347436 W
            Subthreshold Leakage with power gating = 0.000273657 W
            Gate Leakage = 2.04177e-06 W
            Runtime Dynamic = 5.17108e-06 W

              Global Predictor:
                Area = 0.000832803 mm^2
                Peak Dynamic = 6.36785e-05 W
                Subthreshold Leakage = 6.22787e-05 W
                Subthreshold Leakage with power gating = 4.92388e-05 W
                Gate Leakage = 4.18718e-07 W
                Runtime Dynamic = 1.29277e-06 W

              Local Predictor:
              L1_Local Predictor:
                Area = 0.000832803 mm^2
                Peak Dynamic = 6.36785e-05 W
                Subthreshold Leakage = 6.22787e-05 W
                Subthreshold Leakage with power gating = 4.92388e-05 W
                Gate Leakage = 4.18718e-07 W
                Runtime Dynamic = 1.29277e-06 W

              L2_Local Predictor:
                Area = 0.000832803 mm^2
                Peak Dynamic = 6.36785e-05 W
                Subthreshold Leakage = 6.22787e-05 W
                Subthreshold Leakage with power gating = 4.92388e-05 W
                Gate Leakage = 4.18718e-07 W
                Runtime Dynamic = 1.29277e-06 W

              Chooser:
                Area = 0.000832803 mm^2
                Peak Dynamic = 6.36785e-05 W
                Subthreshold Leakage = 6.22787e-05 W
                Subthreshold Leakage with power gating = 4.92388e-05 W
                Gate Leakage = 4.18718e-07 W
                Runtime Dynamic = 1.29277e-06 W

              RAS:
                Area = 0.00249191 mm^2
                Peak Dynamic = 0.000521807 W
                Subthreshold Leakage = 9.83212e-05 W
                Subthreshold Leakage with power gating = 7.67022e-05 W
                Gate Leakage = 3.66901e-07 W
                Runtime Dynamic = 0 W

          Instruction Buffer:
            Area = 0.000562161 mm^2
            Peak Dynamic = 0.000337116 W
            Subthreshold Leakage = 3.89329e-05 W
            Subthreshold Leakage with power gating = 3.11228e-05 W
            Gate Leakage = 1.47028e-07 W
            Runtime Dynamic = 7.60771e-05 W

          Instruction Decoder:
            Area = 0.0010919 mm^2
            Peak Dynamic = 0.00628601 W
            Subthreshold Leakage = 0.000818074 W
            Subthreshold Leakage with power gating = 0.000589013 W
            Gate Leakage = 3.15098e-06 W
            Runtime Dynamic = 0.00141857 W

      Load Store Unit:
        Area = 0.852905 mm^2
        Peak Dynamic = 0.157824 W
        Subthreshold Leakage = 0.100074 W
        Subthreshold Leakage with power gating = 0.0723104 W
        Gate Leakage = 0.000520218 W
        Runtime Dynamic = 0.00834072 W

          Data Cache:
            Area = 0.744849 mm^2
            Peak Dynamic = 0.153817 W
            Subthreshold Leakage = 0.0953126 W
            Subthreshold Leakage with power gating = 0.0688824 W
            Gate Leakage = 0.000477874 W
            Runtime Dynamic = 0.00429027 W

          Load/Store Queue:
            Area = 0.0246589 mm^2
            Peak Dynamic = 0.00279776 W
            Subthreshold Leakage = 0.00236645 W
            Subthreshold Leakage with power gating = 0.00170385 W
            Gate Leakage = 1.20553e-05 W
            Runtime Dynamic = 0.00284138 W

      Memory Management Unit:
        Area = 0.0451477 mm^2
        Peak Dynamic = 0.00472733 W
        Subthreshold Leakage = 0.0067707 W
        Subthreshold Leakage with power gating = 0.0048749 W
        Runtime Dynamic = 0.00302267 W

          Itlb:
            Area = 0.0193508 mm^2
            Peak Dynamic = 0.000852331 W
            Subthreshold Leakage = 0.00218803 W
            Subthreshold Leakage with power gating = 0.00157538 W
            Gate Leakage = 1.02204e-05 W
            Runtime Dynamic = 0 W

          Dtlb:
            Area = 0.0193508 mm^2
            Peak Dynamic = 0.000852331 W
            Subthreshold Leakage = 0.00218803 W
            Subthreshold Leakage with power gating = 0.00157538 W
            Gate Leakage = 1.02204e-05 W
            Runtime Dynamic = 0 W

      Execution Unit:
        Area = 1.12881 mm^2
        Peak Dynamic = 0.10989 W
        Subthreshold Leakage = 0.194945 W
        Subthreshold Leakage with power gating = 0.140361 W
        Runtime Dynamic = 0.0187562 W

          Register Files:
            Area = 0.0209859 mm^2
            Peak Dynamic = 0.00440725 W
            Subthreshold Leakage = 0.000506267 W
            Subthreshold Leakage with power gating = 0.000365682 W
            Gate Leakage = 2.25559e-06 W
            Runtime Dynamic = 0.000588166 W

              Integer RF:
                Area = 0.0104929 mm^2
                Peak Dynamic = 0.00359776 W
                Subthreshold Leakage = 0.000253133 W
                Subthreshold Leakage with power gating = 0.000182841 W
                Gate Leakage = 1.1278e-06 W
                Runtime Dynamic = 0.000339471 W

              Floating Point RF:
                Area = 0.0104929 mm^2
                Peak Dynamic = 0.000809495 W
                Subthreshold Leakage = 0.000253133 W
                Subthreshold Leakage with power gating = 0.000182841 W
                Gate Leakage = 1.1278e-06 W
                Runtime Dynamic = 0.000248695 W

          Instruction Scheduler:
            Area = 0 mm^2
            Peak Dynamic = 0 W
            Subthreshold Leakage = 0 W
            Subthreshold Leakage with power gating = 0 W
            Gate Leakage = 0 W
            Runtime Dynamic = 0 W

          Integer ALUs (Count: 1 ):
            Area = 0.0483427 mm^2
            Peak Dynamic = 0.0213111 W
            Subthreshold Leakage = 0.0208371 W
            Subthreshold Leakage with power gating = 0.0150027 W
            Gate Leakage = 0.000104731 W
            Runtime Dynamic = 0.00377716 W

          Floating Point Units (FPUs) (Count: 1 ):
            Area = 0.901794 mm^2
            Peak Dynamic = 0.01918 W
            Subthreshold Leakage = 0.0971749 W
            Subthreshold Leakage with power gating = 0.0699659 W
            Gate Leakage = 0.000488418 W
            Runtime Dynamic = 0.00949347 W

          Complex ALUs (Mul/Div) (Count: 1 ):
            Area = 0.145028 mm^2
            Peak Dynamic = 0.0127866 W
            Subthreshold Leakage = 0.0625114 W
            Subthreshold Leakage with power gating = 0.0450082 W
            Gate Leakage = 0.000314193 W
            Runtime Dynamic = 6.11708e-05 W

          Results Broadcast Bus:
            Area Overhead = 0.00621299 mm^2
            Peak Dynamic = 0.047369 W
            Subthreshold Leakage = 0.0115202 W
            Subthreshold Leakage with power gating = 0.00829458 W
            Gate Leakage = 5.79028e-05 W
            Runtime Dynamic = 0 W

*****************************************************************************************
Core:
      Area = 3.68846 mm^2
      Peak Dynamic = 0.356579 W
      Subthreshold Leakage = 0.598087 W
      Subthreshold Leakage with power gating = 0.43124 W
      Gate Leakage = 0.00306614 W
      Runtime Dynamic = 0.041926 W

      Instruction Fetch Unit:
        Area = 0.657112 mm^2
        Peak Dynamic = 0.0841372 W
        Subthreshold Leakage = 0.0798172 W
        Subthreshold Leakage with power gating = 0.0578269 W
        Gate Leakage = 0.000409326 W
        Runtime Dynamic = 0.0117982 W

          Instruction Cache:
            Area = 0.588595 mm^2
            Peak Dynamic = 0.0733869 W
            Subthreshold Leakage = 0.0736664 W
            Subthreshold Leakage with power gating = 0.0532972 W
            Gate Leakage = 0.000368313 W
            Runtime Dynamic = 0.00908569 W

          Branch Target Buffer:
            Area = 0.0545931 mm^2
            Peak Dynamic = 0.00214156 W
            Subthreshold Leakage = 0.00255165 W
            Subthreshold Leakage with power gating = 0.00191185 W
            Gate Leakage = 5.3839e-06 W
            Runtime Dynamic = 0 W

          Branch Predictor:
            Area = 0.00582312 mm^2
            Peak Dynamic = 0.000776521 W
            Subthreshold Leakage = 0.000347436 W
            Subthreshold Leakage with power gating = 0.000273657 W
            Gate Leakage = 2.04177e-06 W
            Runtime Dynamic = 5.28253e-06 W

              Global Predictor:
                Area = 0.000832803 mm^2
                Peak Dynamic = 6.36785e-05 W
                Subthreshold Leakage = 6.22787e-05 W
                Subthreshold Leakage with power gating = 4.92388e-05 W
                Gate Leakage = 4.18718e-07 W
                Runtime Dynamic = 1.32063e-06 W

              Local Predictor:
              L1_Local Predictor:
                Area = 0.000832803 mm^2
                Peak Dynamic = 6.36785e-05 W
                Subthreshold Leakage = 6.22787e-05 W
                Subthreshold Leakage with power gating = 4.92388e-05 W
                Gate Leakage = 4.18718e-07 W
                Runtime Dynamic = 1.32063e-06 W

              L2_Local Predictor:
                Area = 0.000832803 mm^2
                Peak Dynamic = 6.36785e-05 W
                Subthreshold Leakage = 6.22787e-05 W
                Subthreshold Leakage with power gating = 4.92388e-05 W
                Gate Leakage = 4.18718e-07 W
                Runtime Dynamic = 1.32063e-06 W

              Chooser:
                Area = 0.000832803 mm^2
                Peak Dynamic = 6.36785e-05 W
                Subthreshold Leakage = 6.22787e-05 W
                Subthreshold Leakage with power gating = 4.92388e-05 W
                Gate Leakage = 4.18718e-07 W
                Runtime Dynamic = 1.32063e-06 W

              RAS:
                Area = 0.00249191 mm^2
                Peak Dynamic = 0.000521807 W
                Subthreshold Leakage = 9.83212e-05 W
                Subthreshold Leakage with power gating = 7.67022e-05 W
                Gate Leakage = 3.66901e-07 W
                Runtime Dynamic = 0 W

          Instruction Buffer:
            Area = 0.000562161 mm^2
            Peak Dynamic = 0.000337116 W
            Subthreshold Leakage = 3.89329e-05 W
            Subthreshold Leakage with power gating = 3.11228e-05 W
            Gate Leakage = 1.47028e-07 W
            Runtime Dynamic = 7.6256e-05 W

          Instruction Decoder:
            Area = 0.0010919 mm^2
            Peak Dynamic = 0.00628601 W
            Subthreshold Leakage = 0.000818074 W
            Subthreshold Leakage with power gating = 0.000589013 W
            Gate Leakage = 3.15098e-06 W
            Runtime Dynamic = 0.0014219 W

      Load Store Unit:
        Area = 0.852905 mm^2
        Peak Dynamic = 0.157824 W
        Subthreshold Leakage = 0.100074 W
        Subthreshold Leakage with power gating = 0.0723104 W
        Gate Leakage = 0.000520218 W
        Runtime Dynamic = 0.00838185 W

          Data Cache:
            Area = 0.744849 mm^2
            Peak Dynamic = 0.153817 W
            Subthreshold Leakage = 0.0953126 W
            Subthreshold Leakage with power gating = 0.0688824 W
            Gate Leakage = 0.000477874 W
            Runtime Dynamic = 0.00431481 W

          Load/Store Queue:
            Area = 0.0246589 mm^2
            Peak Dynamic = 0.00279776 W
            Subthreshold Leakage = 0.00236645 W
            Subthreshold Leakage with power gating = 0.00170385 W
            Gate Leakage = 1.20553e-05 W
            Runtime Dynamic = 0.00285799 W

      Memory Management Unit:
        Area = 0.0451477 mm^2
        Peak Dynamic = 0.00472733 W
        Subthreshold Leakage = 0.0067707 W
        Subthreshold Leakage with power gating = 0.0048749 W
        Runtime Dynamic = 0.00302263 W

          Itlb:
            Area = 0.0193508 mm^2
            Peak Dynamic = 0.000852331 W
            Subthreshold Leakage = 0.00218803 W
            Subthreshold Leakage with power gating = 0.00157538 W
            Gate Leakage = 1.02204e-05 W
            Runtime Dynamic = 0 W

          Dtlb:
            Area = 0.0193508 mm^2
            Peak Dynamic = 0.000852331 W
            Subthreshold Leakage = 0.00218803 W
            Subthreshold Leakage with power gating = 0.00157538 W
            Gate Leakage = 1.02204e-05 W
            Runtime Dynamic = 0 W

      Execution Unit:
        Area = 1.12881 mm^2
        Peak Dynamic = 0.10989 W
        Subthreshold Leakage = 0.194945 W
        Subthreshold Leakage with power gating = 0.140361 W
        Runtime Dynamic = 0.0187234 W

          Register Files:
            Area = 0.0209859 mm^2
            Peak Dynamic = 0.00440725 W
            Subthreshold Leakage = 0.000506267 W
            Subthreshold Leakage with power gating = 0.000365682 W
            Gate Leakage = 2.25559e-06 W
            Runtime Dynamic = 0.000588032 W

              Integer RF:
                Area = 0.0104929 mm^2
                Peak Dynamic = 0.00359776 W
                Subthreshold Leakage = 0.000253133 W
                Subthreshold Leakage with power gating = 0.000182841 W
                Gate Leakage = 1.1278e-06 W
                Runtime Dynamic = 0.000340223 W

              Floating Point RF:
                Area = 0.0104929 mm^2
                Peak Dynamic = 0.000809495 W
                Subthreshold Leakage = 0.000253133 W
                Subthreshold Leakage with power gating = 0.000182841 W
                Gate Leakage = 1.1278e-06 W
                Runtime Dynamic = 0.000247809 W

          Instruction Scheduler:
            Area = 0 mm^2
            Peak Dynamic = 0 W
            Subthreshold Leakage = 0 W
            Subthreshold Leakage with power gating = 0 W
            Gate Leakage = 0 W
            Runtime Dynamic = 0 W

          Integer ALUs (Count: 1 ):
            Area = 0.0483427 mm^2
            Peak Dynamic = 0.0213111 W
            Subthreshold Leakage = 0.0208371 W
            Subthreshold Leakage with power gating = 0.0150027 W
            Gate Leakage = 0.000104731 W
            Runtime Dynamic = 0.00378979 W

          Floating Point Units (FPUs) (Count: 1 ):
            Area = 0.901794 mm^2
            Peak Dynamic = 0.01918 W
            Subthreshold Leakage = 0.0971749 W
            Subthreshold Leakage with power gating = 0.0699659 W
            Gate Leakage = 0.000488418 W
            Runtime Dynamic = 0.00944689 W

          Complex ALUs (Mul/Div) (Count: 1 ):
            Area = 0.145028 mm^2
            Peak Dynamic = 0.0127866 W
            Subthreshold Leakage = 0.0625114 W
            Subthreshold Leakage with power gating = 0.0450082 W
            Gate Leakage = 0.000314193 W
            Runtime Dynamic = 6.24328e-05 W

          Results Broadcast Bus:
            Area Overhead = 0.00621299 mm^2
            Peak Dynamic = 0.047369 W
            Subthreshold Leakage = 0.0115202 W
            Subthreshold Leakage with power gating = 0.00829458 W
            Gate Leakage = 5.79028e-05 W
            Runtime Dynamic = 0 W

*****************************************************************************************
Core:
      Area = 3.68846 mm^2
      Peak Dynamic = 0.356579 W
      Subthreshold Leakage = 0.598087 W
      Subthreshold Leakage with power gating = 0.43124 W
      Gate Leakage = 0.00306614 W
      Runtime Dynamic = 0.0425306 W

      Instruction Fetch Unit:
        Area = 0.657112 mm^2
        Peak Dynamic = 0.0841372 W
        Subthreshold Leakage = 0.0798172 W
        Subthreshold Leakage with power gating = 0.0578269 W
        Gate Leakage = 0.000409326 W
        Runtime Dynamic = 0.0119601 W

          Instruction Cache:
            Area = 0.588595 mm^2
            Peak Dynamic = 0.0733869 W
            Subthreshold Leakage = 0.0736664 W
            Subthreshold Leakage with power gating = 0.0532972 W
            Gate Leakage = 0.000368313 W
            Runtime Dynamic = 0.00922359 W

          Branch Target Buffer:
            Area = 0.0545931 mm^2
            Peak Dynamic = 0.00214156 W
            Subthreshold Leakage = 0.00255165 W
            Subthreshold Leakage with power gating = 0.00191185 W
            Gate Leakage = 5.3839e-06 W
            Runtime Dynamic = 0 W

          Branch Predictor:
            Area = 0.00582312 mm^2
            Peak Dynamic = 0.000776521 W
            Subthreshold Leakage = 0.000347436 W
            Subthreshold Leakage with power gating = 0.000273657 W
            Gate Leakage = 2.04177e-06 W
            Runtime Dynamic = 5.34627e-06 W

              Global Predictor:
                Area = 0.000832803 mm^2
                Peak Dynamic = 6.36785e-05 W
                Subthreshold Leakage = 6.22787e-05 W
                Subthreshold Leakage with power gating = 4.92388e-05 W
                Gate Leakage = 4.18718e-07 W
                Runtime Dynamic = 1.33657e-06 W

              Local Predictor:
              L1_Local Predictor:
                Area = 0.000832803 mm^2
                Peak Dynamic = 6.36785e-05 W
                Subthreshold Leakage = 6.22787e-05 W
                Subthreshold Leakage with power gating = 4.92388e-05 W
                Gate Leakage = 4.18718e-07 W
                Runtime Dynamic = 1.33657e-06 W

              L2_Local Predictor:
                Area = 0.000832803 mm^2
                Peak Dynamic = 6.36785e-05 W
                Subthreshold Leakage = 6.22787e-05 W
                Subthreshold Leakage with power gating = 4.92388e-05 W
                Gate Leakage = 4.18718e-07 W
                Runtime Dynamic = 1.33657e-06 W

              Chooser:
                Area = 0.000832803 mm^2
                Peak Dynamic = 6.36785e-05 W
                Subthreshold Leakage = 6.22787e-05 W
                Subthreshold Leakage with power gating = 4.92388e-05 W
                Gate Leakage = 4.18718e-07 W
                Runtime Dynamic = 1.33657e-06 W

              RAS:
                Area = 0.00249191 mm^2
                Peak Dynamic = 0.000521807 W
                Subthreshold Leakage = 9.83212e-05 W
                Subthreshold Leakage with power gating = 7.67022e-05 W
                Gate Leakage = 3.66901e-07 W
                Runtime Dynamic = 0 W

          Instruction Buffer:
            Area = 0.000562161 mm^2
            Peak Dynamic = 0.000337116 W
            Subthreshold Leakage = 3.89329e-05 W
            Subthreshold Leakage with power gating = 3.11228e-05 W
            Gate Leakage = 1.47028e-07 W
            Runtime Dynamic = 7.74769e-05 W

          Instruction Decoder:
            Area = 0.0010919 mm^2
            Peak Dynamic = 0.00628601 W
            Subthreshold Leakage = 0.000818074 W
            Subthreshold Leakage with power gating = 0.000589013 W
            Gate Leakage = 3.15098e-06 W
            Runtime Dynamic = 0.00144467 W

      Load Store Unit:
        Area = 0.852905 mm^2
        Peak Dynamic = 0.157824 W
        Subthreshold Leakage = 0.100074 W
        Subthreshold Leakage with power gating = 0.0723104 W
        Gate Leakage = 0.000520218 W
        Runtime Dynamic = 0.00853516 W

          Data Cache:
            Area = 0.744849 mm^2
            Peak Dynamic = 0.153817 W
            Subthreshold Leakage = 0.0953126 W
            Subthreshold Leakage with power gating = 0.0688824 W
            Gate Leakage = 0.000477874 W
            Runtime Dynamic = 0.00440766 W

          Load/Store Queue:
            Area = 0.0246589 mm^2
            Peak Dynamic = 0.00279776 W
            Subthreshold Leakage = 0.00236645 W
            Subthreshold Leakage with power gating = 0.00170385 W
            Gate Leakage = 1.20553e-05 W
            Runtime Dynamic = 0.00291844 W

      Memory Management Unit:
        Area = 0.0451477 mm^2
        Peak Dynamic = 0.00472733 W
        Subthreshold Leakage = 0.0067707 W
        Subthreshold Leakage with power gating = 0.0048749 W
        Runtime Dynamic = 0.00302265 W

          Itlb:
            Area = 0.0193508 mm^2
            Peak Dynamic = 0.000852331 W
            Subthreshold Leakage = 0.00218803 W
            Subthreshold Leakage with power gating = 0.00157538 W
            Gate Leakage = 1.02204e-05 W
            Runtime Dynamic = 0 W

          Dtlb:
            Area = 0.0193508 mm^2
            Peak Dynamic = 0.000852331 W
            Subthreshold Leakage = 0.00218803 W
            Subthreshold Leakage with power gating = 0.00157538 W
            Gate Leakage = 1.02204e-05 W
            Runtime Dynamic = 0 W

      Execution Unit:
        Area = 1.12881 mm^2
        Peak Dynamic = 0.10989 W
        Subthreshold Leakage = 0.194945 W
        Subthreshold Leakage with power gating = 0.140361 W
        Runtime Dynamic = 0.0190126 W

          Register Files:
            Area = 0.0209859 mm^2
            Peak Dynamic = 0.00440725 W
            Subthreshold Leakage = 0.000506267 W
            Subthreshold Leakage with power gating = 0.000365682 W
            Gate Leakage = 2.25559e-06 W
            Runtime Dynamic = 0.000598592 W

              Integer RF:
                Area = 0.0104929 mm^2
                Peak Dynamic = 0.00359776 W
                Subthreshold Leakage = 0.000253133 W
                Subthreshold Leakage with power gating = 0.000182841 W
                Gate Leakage = 1.1278e-06 W
                Runtime Dynamic = 0.0003447 W

              Floating Point RF:
                Area = 0.0104929 mm^2
                Peak Dynamic = 0.000809495 W
                Subthreshold Leakage = 0.000253133 W
                Subthreshold Leakage with power gating = 0.000182841 W
                Gate Leakage = 1.1278e-06 W
                Runtime Dynamic = 0.000253892 W

          Instruction Scheduler:
            Area = 0 mm^2
            Peak Dynamic = 0 W
            Subthreshold Leakage = 0 W
            Subthreshold Leakage with power gating = 0 W
            Gate Leakage = 0 W
            Runtime Dynamic = 0 W

          Integer ALUs (Count: 1 ):
            Area = 0.0483427 mm^2
            Peak Dynamic = 0.0213111 W
            Subthreshold Leakage = 0.0208371 W
            Subthreshold Leakage with power gating = 0.0150027 W
            Gate Leakage = 0.000104731 W
            Runtime Dynamic = 0.00384276 W

          Floating Point Units (FPUs) (Count: 1 ):
            Area = 0.901794 mm^2
            Peak Dynamic = 0.01918 W
            Subthreshold Leakage = 0.0971749 W
            Subthreshold Leakage with power gating = 0.0699659 W
            Gate Leakage = 0.000488418 W
            Runtime Dynamic = 0.0096748 W

          Complex ALUs (Mul/Div) (Count: 1 ):
            Area = 0.145028 mm^2
            Peak Dynamic = 0.0127866 W
            Subthreshold Leakage = 0.0625114 W
            Subthreshold Leakage with power gating = 0.0450082 W
            Gate Leakage = 0.000314193 W
            Runtime Dynamic = 6.02452e-05 W

          Results Broadcast Bus:
            Area Overhead = 0.00621299 mm^2
            Peak Dynamic = 0.047369 W
            Subthreshold Leakage = 0.0115202 W
            Subthreshold Leakage with power gating = 0.00829458 W
[...]

          Register Files:
            Area = 0.0209859 mm^2
            Peak Dynamic = 0.00440725 W
            Subthreshold Leakage = 0.000506267 W
            Subthreshold Leakage with power gating = 0.000365682 W
            Gate Leakage = 2.25559e-06 W
            Runtime Dynamic = 0.000512207 W

              Integer RF:
                Area = 0.0104929 mm^2
                Peak Dynamic = 0.00359776 W
                Subthreshold Leakage = 0.000253133 W
                Subthreshold Leakage with power gating = 0.000182841 W
                Gate Leakage = 1.1278e-06 W
                Runtime Dynamic = 0.000296789 W

              Floating Point RF:
                Area = 0.0104929 mm^2
                Peak Dynamic = 0.000809495 W
                Subthreshold Leakage = 0.000253133 W
                Subthreshold Leakage with power gating = 0.000182841 W
                Gate Leakage = 1.1278e-06 W
                Runtime Dynamic = 0.000215418 W

          Instruction Scheduler:
            Area = 0 mm^2
            Peak Dynamic = 0 W
            Subthreshold Leakage = 0 W
            Subthreshold Leakage with power gating = 0 W
            Gate Leakage = 0 W
            Runtime Dynamic = 0 W

          Integer ALUs (Count: 1 ):
            Area = 0.0483427 mm^2
            Peak Dynamic = 0.0213111 W
            Subthreshold Leakage = 0.0208371 W
            Subthreshold Leakage with power gating = 0.0150027 W
            Gate Leakage = 0.000104731 W
            Runtime Dynamic = 0.00330392 W

          Floating Point Units (FPUs) (Count: 1 ):
            Area = 0.901794 mm^2
            Peak Dynamic = 0.01918 W
            Subthreshold Leakage = 0.0971749 W
            Subthreshold Leakage with power gating = 0.0699659 W
            Gate Leakage = 0.000488418 W
            Runtime Dynamic = 0.00820623 W

          Complex ALUs (Mul/Div) (Count: 1 ):
            Area = 0.145028 mm^2
            Peak Dynamic = 0.0127866 W
            Subthreshold Leakage = 0.0625114 W
            Subthreshold Leakage with power gating = 0.0450082 W
            Gate Leakage = 0.000314193 W
            Runtime Dynamic = 5.76033e-05 W

          Results Broadcast Bus:
            Area Overhead = 0.00621299 mm^2
            Peak Dynamic = 0.047369 W
            Subthreshold Leakage = 0.0115202 W
            Subthreshold Leakage with power gating = 0.00829458 W
            Gate Leakage = 5.79028e-05 W
            Runtime Dynamic = 0 W

*****************************************************************************************
Core:
      Area = 3.68846 mm^2
      Peak Dynamic = 0.356579 W
      Subthreshold Leakage = 0.598087 W
      Subthreshold Leakage with power gating = 0.43124 W
      Gate Leakage = 0.00306614 W
      Runtime Dynamic = 0.0363819 W

      Instruction Fetch Unit:
        Area = 0.657112 mm^2
        Peak Dynamic = 0.0841372 W
        Subthreshold Leakage = 0.0798172 W
        Subthreshold Leakage with power gating = 0.0578269 W
        Gate Leakage = 0.000409326 W
        Runtime Dynamic = 0.0100575 W

          Instruction Cache:
            Area = 0.588595 mm^2
            Peak Dynamic = 0.0733869 W
            Subthreshold Leakage = 0.0736664 W
            Subthreshold Leakage with power gating = 0.0532972 W
            Gate Leakage = 0.000368313 W
            Runtime Dynamic = 0.0075946 W

          Branch Target Buffer:
            Area = 0.0545931 mm^2
            Peak Dynamic = 0.00214156 W
            Subthreshold Leakage = 0.00255165 W
            Subthreshold Leakage with power gating = 0.00191185 W
            Gate Leakage = 5.3839e-06 W
            Runtime Dynamic = 0 W

          Branch Predictor:
            Area = 0.00582312 mm^2
            Peak Dynamic = 0.000776521 W
            Subthreshold Leakage = 0.000347436 W
            Subthreshold Leakage with power gating = 0.000273657 W
            Gate Leakage = 2.04177e-06 W
            Runtime Dynamic = 4.74165e-06 W

              Global Predictor:
                Area = 0.000832803 mm^2
                Peak Dynamic = 6.36785e-05 W
                Subthreshold Leakage = 6.22787e-05 W
                Subthreshold Leakage with power gating = 4.92388e-05 W
                Gate Leakage = 4.18718e-07 W
                Runtime Dynamic = 1.18541e-06 W

              Local Predictor:
              L1_Local Predictor:
                Area = 0.000832803 mm^2
                Peak Dynamic = 6.36785e-05 W
                Subthreshold Leakage = 6.22787e-05 W
                Subthreshold Leakage with power gating = 4.92388e-05 W
                Gate Leakage = 4.18718e-07 W
                Runtime Dynamic = 1.18541e-06 W

              L2_Local Predictor:
                Area = 0.000832803 mm^2
                Peak Dynamic = 6.36785e-05 W
                Subthreshold Leakage = 6.22787e-05 W
                Subthreshold Leakage with power gating = 4.92388e-05 W
                Gate Leakage = 4.18718e-07 W
                Runtime Dynamic = 1.18541e-06 W

              Chooser:
                Area = 0.000832803 mm^2
                Peak Dynamic = 6.36785e-05 W
                Subthreshold Leakage = 6.22787e-05 W
                Subthreshold Leakage with power gating = 4.92388e-05 W
                Gate Leakage = 4.18718e-07 W
                Runtime Dynamic = 1.18541e-06 W

              RAS:
                Area = 0.00249191 mm^2
                Peak Dynamic = 0.000521807 W
                Subthreshold Leakage = 9.83212e-05 W
                Subthreshold Leakage with power gating = 7.67022e-05 W
                Gate Leakage = 3.66901e-07 W
                Runtime Dynamic = 0 W

          Instruction Buffer:
            Area = 0.000562161 mm^2
            Peak Dynamic = 0.000337116 W
            Subthreshold Leakage = 3.89329e-05 W
            Subthreshold Leakage with power gating = 3.11228e-05 W
            Gate Leakage = 1.47028e-07 W
            Runtime Dynamic = 6.35806e-05 W

          Instruction Decoder:
            Area = 0.0010919 mm^2
            Peak Dynamic = 0.00628601 W
            Subthreshold Leakage = 0.000818074 W
            Subthreshold Leakage with power gating = 0.000589013 W
            Gate Leakage = 3.15098e-06 W
            Runtime Dynamic = 0.00118555 W

      Load Store Unit:
        Area = 0.852905 mm^2
        Peak Dynamic = 0.157824 W
        Subthreshold Leakage = 0.100074 W
        Subthreshold Leakage with power gating = 0.0723104 W
        Gate Leakage = 0.000520218 W
        Runtime Dynamic = 0.00713989 W

          Data Cache:
            Area = 0.744849 mm^2
            Peak Dynamic = 0.153817 W
            Subthreshold Leakage = 0.0953126 W
            Subthreshold Leakage with power gating = 0.0688824 W
            Gate Leakage = 0.000477874 W
            Runtime Dynamic = 0.00356627 W

          Load/Store Queue:
            Area = 0.0246589 mm^2
            Peak Dynamic = 0.00279776 W
            Subthreshold Leakage = 0.00236645 W
            Subthreshold Leakage with power gating = 0.00170385 W
            Gate Leakage = 1.20553e-05 W
            Runtime Dynamic = 0.00236455 W

      Memory Management Unit:
        Area = 0.0451477 mm^2
        Peak Dynamic = 0.00472733 W
        Subthreshold Leakage = 0.0067707 W
        Subthreshold Leakage with power gating = 0.0048749 W
        Runtime Dynamic = 0.00302266 W

          Itlb:
            Area = 0.0193508 mm^2
            Peak Dynamic = 0.000852331 W
            Subthreshold Leakage = 0.00218803 W
            Subthreshold Leakage with power gating = 0.00157538 W
            Gate Leakage = 1.02204e-05 W
            Runtime Dynamic = 0 W

          Dtlb:
            Area = 0.0193508 mm^2
            Peak Dynamic = 0.000852331 W
            Subthreshold Leakage = 0.00218803 W
            Subthreshold Leakage with power gating = 0.00157538 W
            Gate Leakage = 1.02204e-05 W
            Runtime Dynamic = 0 W

      Execution Unit:
        Area = 1.12881 mm^2
        Peak Dynamic = 0.10989 W
        Subthreshold Leakage = 0.194945 W
        Subthreshold Leakage with power gating = 0.140361 W
        Runtime Dynamic = 0.0161618 W

          Register Files:
            Area = 0.0209859 mm^2
            Peak Dynamic = 0.00440725 W
            Subthreshold Leakage = 0.000506267 W
            Subthreshold Leakage with power gating = 0.000365682 W
            Gate Leakage = 2.25559e-06 W
            Runtime Dynamic = 0.000484835 W

              Integer RF:
                Area = 0.0104929 mm^2
                Peak Dynamic = 0.00359776 W
                Subthreshold Leakage = 0.000253133 W
                Subthreshold Leakage with power gating = 0.000182841 W
                Gate Leakage = 1.1278e-06 W
                Runtime Dynamic = 0.000285264 W

              Floating Point RF:
                Area = 0.0104929 mm^2
                Peak Dynamic = 0.000809495 W
                Subthreshold Leakage = 0.000253133 W
                Subthreshold Leakage with power gating = 0.000182841 W
                Gate Leakage = 1.1278e-06 W
                Runtime Dynamic = 0.000199572 W

          Instruction Scheduler:
            Area = 0 mm^2
            Peak Dynamic = 0 W
            Subthreshold Leakage = 0 W
            Subthreshold Leakage with power gating = 0 W
            Gate Leakage = 0 W
            Runtime Dynamic = 0 W

          Integer ALUs (Count: 1 ):
            Area = 0.0483427 mm^2
            Peak Dynamic = 0.0213111 W
            Subthreshold Leakage = 0.0208371 W
            Subthreshold Leakage with power gating = 0.0150027 W
            Gate Leakage = 0.000104731 W
            Runtime Dynamic = 0.00318236 W

          Floating Point Units (FPUs) (Count: 1 ):
            Area = 0.901794 mm^2
            Peak Dynamic = 0.01918 W
            Subthreshold Leakage = 0.0971749 W
            Subthreshold Leakage with power gating = 0.0699659 W
            Gate Leakage = 0.000488418 W
            Runtime Dynamic = 0.00759688 W

          Complex ALUs (Mul/Div) (Count: 1 ):
            Area = 0.145028 mm^2
            Peak Dynamic = 0.0127866 W
            Subthreshold Leakage = 0.0625114 W
            Subthreshold Leakage with power gating = 0.0450082 W
            Gate Leakage = 0.000314193 W
            Runtime Dynamic = 6.15129e-05 W

          Results Broadcast Bus:
            Area Overhead = 0.00621299 mm^2
            Peak Dynamic = 0.047369 W
            Subthreshold Leakage = 0.0115202 W
            Subthreshold Leakage with power gating = 0.00829458 W
            Gate Leakage = 5.79028e-05 W
            Runtime Dynamic = 0 W

*****************************************************************************************
Core:
      Area = 3.68846 mm^2
      Peak Dynamic = 0.356579 W
      Subthreshold Leakage = 0.598087 W
      Subthreshold Leakage with power gating = 0.43124 W
      Gate Leakage = 0.00306614 W
      Runtime Dynamic = 0.0361848 W

      Instruction Fetch Unit:
        Area = 0.657112 mm^2
        Peak Dynamic = 0.0841372 W
        Subthreshold Leakage = 0.0798172 W
        Subthreshold Leakage with power gating = 0.0578269 W
        Gate Leakage = 0.000409326 W
        Runtime Dynamic = 0.0100249 W

          Instruction Cache:
            Area = 0.588595 mm^2
            Peak Dynamic = 0.0733869 W
            Subthreshold Leakage = 0.0736664 W
            Subthreshold Leakage with power gating = 0.0532972 W
            Gate Leakage = 0.000368313 W
            Runtime Dynamic = 0.00756778 W

          Branch Target Buffer:
            Area = 0.0545931 mm^2
            Peak Dynamic = 0.00214156 W
            Subthreshold Leakage = 0.00255165 W
            Subthreshold Leakage with power gating = 0.00191185 W
            Gate Leakage = 5.3839e-06 W
            Runtime Dynamic = 0 W

          Branch Predictor:
            Area = 0.00582312 mm^2
            Peak Dynamic = 0.000776521 W
            Subthreshold Leakage = 0.000347436 W
            Subthreshold Leakage with power gating = 0.000273657 W
            Gate Leakage = 2.04177e-06 W
            Runtime Dynamic = 4.81708e-06 W

              Global Predictor:
                Area = 0.000832803 mm^2
                Peak Dynamic = 6.36785e-05 W
                Subthreshold Leakage = 6.22787e-05 W
                Subthreshold Leakage with power gating = 4.92388e-05 W
                Gate Leakage = 4.18718e-07 W
                Runtime Dynamic = 1.20427e-06 W

              Local Predictor:
              L1_Local Predictor:
                Area = 0.000832803 mm^2
                Peak Dynamic = 6.36785e-05 W
                Subthreshold Leakage = 6.22787e-05 W
                Subthreshold Leakage with power gating = 4.92388e-05 W
                Gate Leakage = 4.18718e-07 W
                Runtime Dynamic = 1.20427e-06 W

              L2_Local Predictor:
                Area = 0.000832803 mm^2
                Peak Dynamic = 6.36785e-05 W
                Subthreshold Leakage = 6.22787e-05 W
                Subthreshold Leakage with power gating = 4.92388e-05 W
                Gate Leakage = 4.18718e-07 W
                Runtime Dynamic = 1.20427e-06 W

              Chooser:
                Area = 0.000832803 mm^2
                Peak Dynamic = 6.36785e-05 W
                Subthreshold Leakage = 6.22787e-05 W
                Subthreshold Leakage with power gating = 4.92388e-05 W
                Gate Leakage = 4.18718e-07 W
                Runtime Dynamic = 1.20427e-06 W

              RAS:
                Area = 0.00249191 mm^2
                Peak Dynamic = 0.000521807 W
                Subthreshold Leakage = 9.83212e-05 W
                Subthreshold Leakage with power gating = 7.67022e-05 W
                Gate Leakage = 3.66901e-07 W
                Runtime Dynamic = 0 W

          Instruction Buffer:
            Area = 0.000562161 mm^2
            Peak Dynamic = 0.000337116 W
            Subthreshold Leakage = 3.89329e-05 W
            Subthreshold Leakage with power gating = 3.11228e-05 W
            Gate Leakage = 1.47028e-07 W
            Runtime Dynamic = 6.32791e-05 W

          Instruction Decoder:
            Area = 0.0010919 mm^2
            Peak Dynamic = 0.00628601 W
            Subthreshold Leakage = 0.000818074 W
            Subthreshold Leakage with power gating = 0.000589013 W
            Gate Leakage = 3.15098e-06 W
            Runtime Dynamic = 0.00117993 W

      Load Store Unit:
        Area = 0.852905 mm^2
        Peak Dynamic = 0.157824 W
        Subthreshold Leakage = 0.100074 W
        Subthreshold Leakage with power gating = 0.0723104 W
        Gate Leakage = 0.000520218 W
        Runtime Dynamic = 0.00707866 W

          Data Cache:
            Area = 0.744849 mm^2
            Peak Dynamic = 0.153817 W
            Subthreshold Leakage = 0.0953126 W
            Subthreshold Leakage with power gating = 0.0688824 W
            Gate Leakage = 0.000477874 W
            Runtime Dynamic = 0.00352977 W

          Load/Store Queue:
            Area = 0.0246589 mm^2
            Peak Dynamic = 0.00279776 W
            Subthreshold Leakage = 0.00236645 W
            Subthreshold Leakage with power gating = 0.00170385 W
            Gate Leakage = 1.20553e-05 W
            Runtime Dynamic = 0.00233983 W

      Memory Management Unit:
        Area = 0.0451477 mm^2
        Peak Dynamic = 0.00472733 W
        Subthreshold Leakage = 0.0067707 W
        Subthreshold Leakage with power gating = 0.0048749 W
        Runtime Dynamic = 0.00302264 W

          Itlb:
            Area = 0.0193508 mm^2
            Peak Dynamic = 0.000852331 W
            Subthreshold Leakage = 0.00218803 W
            Subthreshold Leakage with power gating = 0.00157538 W
            Gate Leakage = 1.02204e-05 W
            Runtime Dynamic = 0 W

          Dtlb:
            Area = 0.0193508 mm^2
            Peak Dynamic = 0.000852331 W
            Subthreshold Leakage = 0.00218803 W
            Subthreshold Leakage with power gating = 0.00157538 W
            Gate Leakage = 1.02204e-05 W
            Runtime Dynamic = 0 W

      Execution Unit:
        Area = 1.12881 mm^2
        Peak Dynamic = 0.10989 W
        Subthreshold Leakage = 0.194945 W
        Subthreshold Leakage with power gating = 0.140361 W
        Runtime Dynamic = 0.0160587 W

          Register Files:
            Area = 0.0209859 mm^2
            Peak Dynamic = 0.00440725 W
            Subthreshold Leakage = 0.000506267 W
            Subthreshold Leakage with power gating = 0.000365682 W
            Gate Leakage = 2.25559e-06 W
            Runtime Dynamic = 0.000481248 W

              Integer RF:
                Area = 0.0104929 mm^2
                Peak Dynamic = 0.00359776 W
                Subthreshold Leakage = 0.000253133 W
                Subthreshold Leakage with power gating = 0.000182841 W
                Gate Leakage = 1.1278e-06 W
                Runtime Dynamic = 0.000284276 W

              Floating Point RF:
                Area = 0.0104929 mm^2
                Peak Dynamic = 0.000809495 W
                Subthreshold Leakage = 0.000253133 W
                Subthreshold Leakage with power gating = 0.000182841 W
                Gate Leakage = 1.1278e-06 W
                Runtime Dynamic = 0.000196973 W

          Instruction Scheduler:
            Area = 0 mm^2
            Peak Dynamic = 0 W
            Subthreshold Leakage = 0 W
            Subthreshold Leakage with power gating = 0 W
            Gate Leakage = 0 W
            Runtime Dynamic = 0 W

          Integer ALUs (Count: 1 ):
            Area = 0.0483427 mm^2
            Peak Dynamic = 0.0213111 W
            Subthreshold Leakage = 0.0208371 W
            Subthreshold Leakage with power gating = 0.0150027 W
            Gate Leakage = 0.000104731 W
            Runtime Dynamic = 0.00317625 W

          Floating Point Units (FPUs) (Count: 1 ):
            Area = 0.901794 mm^2
            Peak Dynamic = 0.01918 W
            Subthreshold Leakage = 0.0971749 W
            Subthreshold Leakage with power gating = 0.0699659 W
            Gate Leakage = 0.000488418 W
            Runtime Dynamic = 0.00750621 W

          Complex ALUs (Mul/Div) (Count: 1 ):
            Area = 0.145028 mm^2
            Peak Dynamic = 0.0127866 W
            Subthreshold Leakage = 0.0625114 W
            Subthreshold Leakage with power gating = 0.0450082 W
            Gate Leakage = 0.000314193 W
            Runtime Dynamic = 5.87336e-05 W

          Results Broadcast Bus:
            Area Overhead = 0.00621299 mm^2
            Peak Dynamic = 0.047369 W
            Subthreshold Leakage = 0.0115202 W
            Subthreshold Leakage with power gating = 0.00829458 W
            Gate Leakage = 5.79028e-05 W
            Runtime Dynamic = 0 W

*****************************************************************************************
First Level Directory
      Area = 0.22996 mm^2
      Peak Dynamic = 0.181271 W
      Subthreshold Leakage = 0.045217 W
      Subthreshold Leakage with power gating = 0.0331241 W
      Gate Leakage = 0.00491722 W
      Runtime Dynamic = 0 W

*****************************************************************************************
Memory Controller:
      Area = 0.106977 mm^2
      Peak Dynamic = 2.03862 W
      Subthreshold Leakage = 1.6567 W
      Subthreshold Leakage with power gating = 0.500555 W
      Gate Leakage = 0.000147409 W
      Runtime Dynamic = 0.203862 W

      Front End Engine:
        Area = 0.0513081 mm^2
        Peak Dynamic = 0.236335 W
        Subthreshold Leakage = 0.92052 W
        Subthreshold Leakage with power gating = 0.288535 W
        Gate Leakage = 4.45306e-05 W
        Runtime Dynamic = 0.0236335 W

      Transaction Engine:
        Area = 0.0556686 mm^2
        Peak Dynamic = 1.80229 W
        Subthreshold Leakage = 0.736181 W
        Subthreshold Leakage with power gating = 0.21202 W
        Gate Leakage = 0.000102878 W
        Runtime Dynamic = 0.180229 W

*****************************************************************************************
