McPAT (version 1.2 of June, 2014) is computing the target processor...
 

McPAT (version 1.2 of June, 2014) results (current print level is 4, please increase print level to see the details in components): 
*****************************************************************************************
  Technology 28 nm
  Using Long Channel Devices When Appropriate
  Interconnect metal projection= aggressive interconnect technology projection
  Core clock Rate(MHz) 1000

*****************************************************************************************
Processor: 
  Area = 239.654 mm^2
  Peak Power = 66.736 W
  Total Leakage = 41.4231 W
  Peak Dynamic = 25.3129 W
  Subthreshold Leakage = 41.2194 W
  Subthreshold Leakage with power gating = 29.0698 W
  Gate Leakage = 0.203701 W
  Runtime Dynamic = 2.18064 W

  Total Cores: 64 cores 
  Device Type= ITRS low operating power device type
    Area = 239.317 mm^2
    Peak Dynamic = 23.093 W
    Subthreshold Leakage = 39.5175 W
    Subthreshold Leakage with power gating = 28.5361 W
    Gate Leakage = 0.198636 W
    Runtime Dynamic = 1.97678 W

  Total First Level Directory: 
  Device Type= ITRS high performance device type
    Area = 0.22996 mm^2
    Peak Dynamic = 0.181271 W
    Subthreshold Leakage = 0.045217 W
    Subthreshold Leakage with power gating = 0.0331241 W
    Gate Leakage = 0.00491722 W
    Runtime Dynamic = 0 W

  Total MCs: 1 Memory Controllers 
  Device Type= ITRS low operating power device type
    Area = 0.106977 mm^2
    Peak Dynamic = 2.03862 W
    Subthreshold Leakage = 1.6567 W
    Subthreshold Leakage with power gating = 0.500555 W
    Gate Leakage = 0.000147409 W
    Runtime Dynamic = 0.203862 W

*****************************************************************************************
Core:
      Area = 4.50244 mm^2
      Peak Dynamic = 0.424571 W
      Subthreshold Leakage = 0.908065 W
      Subthreshold Leakage with power gating = 0.665436 W
      Gate Leakage = 0.00366702 W
      Runtime Dynamic = 0.192343 W

      Instruction Fetch Unit:
        Area = 0.791739 mm^2
        Peak Dynamic = 0.0865259 W
        Subthreshold Leakage = 0.126052 W
        Subthreshold Leakage with power gating = 0.0965958 W
        Gate Leakage = 0.000454771 W
        Runtime Dynamic = 0.00634153 W

          Instruction Cache:
            Area = 0.726697 mm^2
            Peak Dynamic = 0.0764274 W
            Subthreshold Leakage = 0.120172 W
            Subthreshold Leakage with power gating = 0.0922399 W
            Gate Leakage = 0.000430086 W
            Runtime Dynamic = 0.00230594 W

          Branch Target Buffer:
            Area = 0.0545931 mm^2
            Peak Dynamic = 0.00214156 W
            Subthreshold Leakage = 0.00308708 W
            Subthreshold Leakage with power gating = 0.00231303 W
            Gate Leakage = 5.3839e-06 W
            Runtime Dynamic = 0 W

          Branch Predictor:
            Area = 0.00582312 mm^2
            Peak Dynamic = 0.000776521 W
            Subthreshold Leakage = 0.000420341 W
            Subthreshold Leakage with power gating = 0.000331081 W
            Gate Leakage = 2.04177e-06 W
            Runtime Dynamic = 1.6325e-05 W

              Global Predictor:
                Area = 0.000832803 mm^2
                Peak Dynamic = 6.36785e-05 W
                Subthreshold Leakage = 7.53472e-05 W
                Subthreshold Leakage with power gating = 5.95709e-05 W
                Gate Leakage = 4.18718e-07 W
                Runtime Dynamic = 4.08125e-06 W

              Local Predictor:
              L1_Local Predictor:
                Area = 0.000832803 mm^2
                Peak Dynamic = 6.36785e-05 W
                Subthreshold Leakage = 7.53472e-05 W
                Subthreshold Leakage with power gating = 5.95709e-05 W
                Gate Leakage = 4.18718e-07 W
                Runtime Dynamic = 4.08125e-06 W

              L2_Local Predictor:
                Area = 0.000832803 mm^2
                Peak Dynamic = 6.36785e-05 W
                Subthreshold Leakage = 7.53472e-05 W
                Subthreshold Leakage with power gating = 5.95709e-05 W
                Gate Leakage = 4.18718e-07 W
                Runtime Dynamic = 4.08125e-06 W

              Chooser:
                Area = 0.000832803 mm^2
                Peak Dynamic = 6.36785e-05 W
                Subthreshold Leakage = 7.53472e-05 W
                Subthreshold Leakage with power gating = 5.95709e-05 W
                Gate Leakage = 4.18718e-07 W
                Runtime Dynamic = 4.08125e-06 W

              RAS:
                Area = 0.00249191 mm^2
                Peak Dynamic = 0.000521807 W
                Subthreshold Leakage = 0.000118953 W
                Subthreshold Leakage with power gating = 9.27973e-05 W
                Gate Leakage = 3.66901e-07 W
                Runtime Dynamic = 0 W

          Instruction Buffer:
            Area = 0.000562161 mm^2
            Peak Dynamic = 0.000337116 W
            Subthreshold Leakage = 4.71025e-05 W
            Subthreshold Leakage with power gating = 3.76535e-05 W
            Gate Leakage = 1.47028e-07 W
            Runtime Dynamic = 0.000190304 W

          Instruction Decoder:
            Area = 0.0010919 mm^2
            Peak Dynamic = 0.00628601 W
            Subthreshold Leakage = 0.000989737 W
            Subthreshold Leakage with power gating = 0.00071261 W
            Gate Leakage = 3.15098e-06 W
            Runtime Dynamic = 0.00354849 W

      Renaming Unit:
        Area = 0.0181078 mm^2
        Peak Dynamic = 0.00451698 W
        Subthreshold Leakage = 0.00236956 W
        Subthreshold Leakage with power gating = 0.00177039 W
        Gate Leakage = 1.78405e-05 W
        Runtime Dynamic = 0.00116694 W

          Int Front End RAT:
            Area = 0.00908635 mm^2
            Peak Dynamic = 0.00118157 W
            Subthreshold Leakage = 0.00061222 W
            Subthreshold Leakage with power gating = 0.00047961 W
            Gate Leakage = 1.70284e-06 W
            Runtime Dynamic = 3.85927e-05 W

          FP Front End RAT:
            Area = 0.00170308 mm^2
            Peak Dynamic = 0.000389155 W
            Subthreshold Leakage = 0.000100873 W
            Subthreshold Leakage with power gating = 7.76983e-05 W
            Gate Leakage = 4.02661e-07 W
            Runtime Dynamic = 0 W

          Free List:
            Area = 0.00134079 mm^2
            Peak Dynamic = 0.000191137 W
            Subthreshold Leakage = 8.52034e-05 W
            Subthreshold Leakage with power gating = 6.62383e-05 W
            Gate Leakage = 4.68186e-07 W
            Runtime Dynamic = 6.46844e-06 W

          Int Retire RAT: 
            Area = 0.000832803 mm^2
            Peak Dynamic = 0.000167407 W
            Subthreshold Leakage = 7.53472e-05 W
            Subthreshold Leakage with power gating = 5.95709e-05 W
            Gate Leakage = 4.18718e-07 W
            Runtime Dynamic = 0 W

          FP Retire RAT:
            Area = 0.000832803 mm^2
            Peak Dynamic = 0.000167407 W
            Subthreshold Leakage = 7.53472e-05 W
            Subthreshold Leakage with power gating = 5.95709e-05 W
            Gate Leakage = 4.18718e-07 W
            Runtime Dynamic = 0 W

          FP Free List:
            Area = 0.00134079 mm^2
            Peak Dynamic = 0.000191137 W
            Subthreshold Leakage = 8.52034e-05 W
            Subthreshold Leakage with power gating = 6.62383e-05 W
            Gate Leakage = 4.68186e-07 W
            Runtime Dynamic = 0 W

      Load Store Unit:
        Area = 1.02847 mm^2
        Peak Dynamic = 0.163865 W
        Subthreshold Leakage = 0.153422 W
        Subthreshold Leakage with power gating = 0.11618 W
        Gate Leakage = 0.000577719 W
        Runtime Dynamic = 0.0306065 W

          Data Cache:
            Area = 0.882951 mm^2
            Peak Dynamic = 0.157713 W
            Subthreshold Leakage = 0.14636 W
            Subthreshold Leakage with power gating = 0.111096 W
            Gate Leakage = 0.000539647 W
            Runtime Dynamic = 0.0131332 W

          LoadQ:
            Area = 0.0246589 mm^2
            Peak Dynamic = 0.00279776 W
            Subthreshold Leakage = 0.00286303 W
            Subthreshold Leakage with power gating = 0.00206138 W
            Gate Leakage = 1.20553e-05 W
            Runtime Dynamic = 0.00573094 W

          StoreQ:
            Area = 0.0246589 mm^2
            Peak Dynamic = 0.00279776 W
            Subthreshold Leakage = 0.00286303 W
            Subthreshold Leakage with power gating = 0.00206138 W
            Gate Leakage = 1.20553e-05 W
            Runtime Dynamic = 0.0114619 W

      Memory Management Unit:
        Area = 0.0416728 mm^2
        Peak Dynamic = 0.00309789 W
        Subthreshold Leakage = 0.00662968 W
        Subthreshold Leakage with power gating = 0.00477337 W
        Runtime Dynamic = 0.000701172 W

          Itlb:
            Area = 0.0193508 mm^2
            Peak Dynamic = 0.000852331 W
            Subthreshold Leakage = 0.00264716 W
            Subthreshold Leakage with power gating = 0.00190595 W
            Gate Leakage = 1.02204e-05 W
            Runtime Dynamic = 0 W

          Dtlb:
            Area = 0.0193508 mm^2
            Peak Dynamic = 0.000852331 W
            Subthreshold Leakage = 0.00264716 W
            Subthreshold Leakage with power gating = 0.00190595 W
            Gate Leakage = 1.02204e-05 W
            Runtime Dynamic = 0 W

      Execution Unit:
        Area = 1.13453 mm^2
        Peak Dynamic = 0.166564 W
        Subthreshold Leakage = 0.231633 W
        Subthreshold Leakage with power gating = 0.166786 W
        Runtime Dynamic = 0.153527 W

          Register Files:
            Area = 0.0209859 mm^2
            Peak Dynamic = 0.00440725 W
            Subthreshold Leakage = 0.000612501 W
            Subthreshold Leakage with power gating = 0.000442416 W
            Gate Leakage = 2.25559e-06 W
            Runtime Dynamic = 0.00109784 W

              Integer RF:
                Area = 0.0104929 mm^2
                Peak Dynamic = 0.00359776 W
                Subthreshold Leakage = 0.00030625 W
                Subthreshold Leakage with power gating = 0.000221208 W
                Gate Leakage = 1.1278e-06 W
                Runtime Dynamic = 0.000468068 W

              Floating Point RF:
                Area = 0.0104929 mm^2
                Peak Dynamic = 0.000809495 W
                Subthreshold Leakage = 0.00030625 W
                Subthreshold Leakage with power gating = 0.000221208 W
                Gate Leakage = 1.1278e-06 W
                Runtime Dynamic = 0.000629769 W

          Instruction Scheduler:
            Area = 0.0105938 mm^2
            Peak Dynamic = 0.00438496 W
            Subthreshold Leakage = 0.000834334 W
            Subthreshold Leakage with power gating = 0.00060965 W
            Gate Leakage = 3.58533e-06 W
            Runtime Dynamic = 1.99056e-05 W

              Instruction Window:
                Area = 0.00227797 mm^2
                Peak Dynamic = 0.000953473 W
                Subthreshold Leakage = 0.000238919 W
                Subthreshold Leakage with power gating = 0.000172022 W
                Gate Leakage = 1.20626e-06 W
                Runtime Dynamic = 1.99056e-05 W

              FP Instruction Window:
                Area = 0.00368417 mm^2
                Peak Dynamic = 0.00174363 W
                Subthreshold Leakage = 0.000415886 W
                Subthreshold Leakage with power gating = 0.000299438 W
                Gate Leakage = 1.83779e-06 W
                Runtime Dynamic = 0 W

              ROB:
                Area = 0.00463165 mm^2
                Peak Dynamic = 0.00168785 W
                Subthreshold Leakage = 0.000179529 W
                Subthreshold Leakage with power gating = 0.00013819 W
                Gate Leakage = 5.4128e-07 W
                Runtime Dynamic = 0 W

          Integer ALUs (Count: 1 ):
            Area = 0.0483427 mm^2
            Peak Dynamic = 0.0461977 W
            Subthreshold Leakage = 0.0252096 W
            Subthreshold Leakage with power gating = 0.0181509 W
            Gate Leakage = 0.000104731 W
            Runtime Dynamic = 0.0267762 W

          Floating Point Units (FPUs) (Count: 1 ):
            Area = 0.901794 mm^2
            Peak Dynamic = 0.0415779 W
            Subthreshold Leakage = 0.117566 W
            Subthreshold Leakage with power gating = 0.0846475 W
            Gate Leakage = 0.000488418 W
            Runtime Dynamic = 0.0746599 W

          Complex ALUs (Mul/Div) (Count: 1 ):
            Area = 0.145028 mm^2
            Peak Dynamic = 0.0277186 W
            Subthreshold Leakage = 0.0756287 W
            Subthreshold Leakage with power gating = 0.0544526 W
            Gate Leakage = 0.000314193 W
            Runtime Dynamic = 0.0498516 W

          Results Broadcast Bus:
            Area Overhead = 0.00481275 mm^2
            Peak Dynamic = 0.0400488 W
            Subthreshold Leakage = 0.0104462 W
            Subthreshold Leakage with power gating = 0.00752125 W
            Gate Leakage = 4.33978e-05 W
            Runtime Dynamic = 0 W

*****************************************************************************************
Core:
      Area = 4.50244 mm^2
      Peak Dynamic = 0.424571 W
      Subthreshold Leakage = 0.908065 W
      Subthreshold Leakage with power gating = 0.665436 W
      Gate Leakage = 0.00366702 W
      Runtime Dynamic = 0.180867 W

      Instruction Fetch Unit:
        Area = 0.791739 mm^2
        Peak Dynamic = 0.0865259 W
        Subthreshold Leakage = 0.126052 W
        Subthreshold Leakage with power gating = 0.0965958 W
        Gate Leakage = 0.000454771 W
        Runtime Dynamic = 0.00477133 W

          Instruction Cache:
            Area = 0.726697 mm^2
            Peak Dynamic = 0.0764274 W
            Subthreshold Leakage = 0.120172 W
            Subthreshold Leakage with power gating = 0.0922399 W
            Gate Leakage = 0.000430086 W
            Runtime Dynamic = 0.00168811 W

          Branch Target Buffer:
            Area = 0.0545931 mm^2
            Peak Dynamic = 0.00214156 W
            Subthreshold Leakage = 0.00308708 W
            Subthreshold Leakage with power gating = 0.00231303 W
            Gate Leakage = 5.3839e-06 W
            Runtime Dynamic = 0 W

          Branch Predictor:
            Area = 0.00582312 mm^2
            Peak Dynamic = 0.000776521 W
            Subthreshold Leakage = 0.000420341 W
            Subthreshold Leakage with power gating = 0.000331081 W
            Gate Leakage = 2.04177e-06 W
            Runtime Dynamic = 1.71012e-05 W

              Global Predictor:
                Area = 0.000832803 mm^2
                Peak Dynamic = 6.36785e-05 W
                Subthreshold Leakage = 7.53472e-05 W
                Subthreshold Leakage with power gating = 5.95709e-05 W
                Gate Leakage = 4.18718e-07 W
                Runtime Dynamic = 4.2753e-06 W

              Local Predictor:
              L1_Local Predictor:
                Area = 0.000832803 mm^2
                Peak Dynamic = 6.36785e-05 W
                Subthreshold Leakage = 7.53472e-05 W
                Subthreshold Leakage with power gating = 5.95709e-05 W
                Gate Leakage = 4.18718e-07 W
                Runtime Dynamic = 4.2753e-06 W

              L2_Local Predictor:
                Area = 0.000832803 mm^2
                Peak Dynamic = 6.36785e-05 W
                Subthreshold Leakage = 7.53472e-05 W
                Subthreshold Leakage with power gating = 5.95709e-05 W
                Gate Leakage = 4.18718e-07 W
                Runtime Dynamic = 4.2753e-06 W

              Chooser:
                Area = 0.000832803 mm^2
                Peak Dynamic = 6.36785e-05 W
                Subthreshold Leakage = 7.53472e-05 W
                Subthreshold Leakage with power gating = 5.95709e-05 W
                Gate Leakage = 4.18718e-07 W
                Runtime Dynamic = 4.2753e-06 W

              RAS:
                Area = 0.00249191 mm^2
                Peak Dynamic = 0.000521807 W
                Subthreshold Leakage = 0.000118953 W
                Subthreshold Leakage with power gating = 9.27973e-05 W
                Gate Leakage = 3.66901e-07 W
                Runtime Dynamic = 0 W

          Instruction Buffer:
            Area = 0.000562161 mm^2
            Peak Dynamic = 0.000337116 W
            Subthreshold Leakage = 4.71025e-05 W
            Subthreshold Leakage with power gating = 3.76535e-05 W
            Gate Leakage = 1.47028e-07 W
            Runtime Dynamic = 0.000145198 W

          Instruction Decoder:
            Area = 0.0010919 mm^2
            Peak Dynamic = 0.00628601 W
            Subthreshold Leakage = 0.000989737 W
            Subthreshold Leakage with power gating = 0.00071261 W
            Gate Leakage = 3.15098e-06 W
            Runtime Dynamic = 0.00270742 W

      Renaming Unit:
        Area = 0.0181078 mm^2
        Peak Dynamic = 0.00451698 W
        Subthreshold Leakage = 0.00236956 W
        Subthreshold Leakage with power gating = 0.00177039 W
        Gate Leakage = 1.78405e-05 W
        Runtime Dynamic = 0.000893388 W

          Int Front End RAT:
            Area = 0.00908635 mm^2
            Peak Dynamic = 0.00118157 W
            Subthreshold Leakage = 0.00061222 W
            Subthreshold Leakage with power gating = 0.00047961 W
            Gate Leakage = 1.70284e-06 W
            Runtime Dynamic = 3.37383e-05 W

          FP Front End RAT:
            Area = 0.00170308 mm^2
            Peak Dynamic = 0.000389155 W
            Subthreshold Leakage = 0.000100873 W
            Subthreshold Leakage with power gating = 7.76983e-05 W
            Gate Leakage = 4.02661e-07 W
            Runtime Dynamic = 0 W

          Free List:
            Area = 0.00134079 mm^2
            Peak Dynamic = 0.000191137 W
            Subthreshold Leakage = 8.52034e-05 W
            Subthreshold Leakage with power gating = 6.62383e-05 W
            Gate Leakage = 4.68186e-07 W
            Runtime Dynamic = 5.65481e-06 W

          Int Retire RAT: 
            Area = 0.000832803 mm^2
            Peak Dynamic = 0.000167407 W
            Subthreshold Leakage = 7.53472e-05 W
            Subthreshold Leakage with power gating = 5.95709e-05 W
            Gate Leakage = 4.18718e-07 W
            Runtime Dynamic = 0 W

          FP Retire RAT:
            Area = 0.000832803 mm^2
            Peak Dynamic = 0.000167407 W
            Subthreshold Leakage = 7.53472e-05 W
            Subthreshold Leakage with power gating = 5.95709e-05 W
            Gate Leakage = 4.18718e-07 W
            Runtime Dynamic = 0 W

          FP Free List:
            Area = 0.00134079 mm^2
            Peak Dynamic = 0.000191137 W
            Subthreshold Leakage = 8.52034e-05 W
            Subthreshold Leakage with power gating = 6.62383e-05 W
            Gate Leakage = 4.68186e-07 W
            Runtime Dynamic = 0 W

      Load Store Unit:
        Area = 1.02847 mm^2
        Peak Dynamic = 0.163865 W
        Subthreshold Leakage = 0.153422 W
        Subthreshold Leakage with power gating = 0.11618 W
        Gate Leakage = 0.000577719 W
        Runtime Dynamic = 0.0219215 W

          Data Cache:
            Area = 0.882951 mm^2
            Peak Dynamic = 0.157713 W
            Subthreshold Leakage = 0.14636 W
            Subthreshold Leakage with power gating = 0.111096 W
            Gate Leakage = 0.000539647 W
            Runtime Dynamic = 0.00954023 W

          LoadQ:
            Area = 0.0246589 mm^2
            Peak Dynamic = 0.00279776 W
            Subthreshold Leakage = 0.00286303 W
            Subthreshold Leakage with power gating = 0.00206138 W
            Gate Leakage = 1.20553e-05 W
            Runtime Dynamic = 0.00405592 W

          StoreQ:
            Area = 0.0246589 mm^2
            Peak Dynamic = 0.00279776 W
            Subthreshold Leakage = 0.00286303 W
            Subthreshold Leakage with power gating = 0.00206138 W
            Gate Leakage = 1.20553e-05 W
            Runtime Dynamic = 0.00811184 W

      Memory Management Unit:
        Area = 0.0416728 mm^2
        Peak Dynamic = 0.00309789 W
        Subthreshold Leakage = 0.00662968 W
        Subthreshold Leakage with power gating = 0.00477337 W
        Runtime Dynamic = 0.000533747 W

          Itlb:
            Area = 0.0193508 mm^2
            Peak Dynamic = 0.000852331 W
            Subthreshold Leakage = 0.00264716 W
            Subthreshold Leakage with power gating = 0.00190595 W
            Gate Leakage = 1.02204e-05 W
            Runtime Dynamic = 0 W

          Dtlb:
            Area = 0.0193508 mm^2
            Peak Dynamic = 0.000852331 W
            Subthreshold Leakage = 0.00264716 W
            Subthreshold Leakage with power gating = 0.00190595 W
            Gate Leakage = 1.02204e-05 W
            Runtime Dynamic = 0 W

      Execution Unit:
        Area = 1.13453 mm^2
        Peak Dynamic = 0.166564 W
        Subthreshold Leakage = 0.231633 W
        Subthreshold Leakage with power gating = 0.166786 W
        Runtime Dynamic = 0.152747 W

          Register Files:
            Area = 0.0209859 mm^2
            Peak Dynamic = 0.00440725 W
            Subthreshold Leakage = 0.000612501 W
            Subthreshold Leakage with power gating = 0.000442416 W
            Gate Leakage = 2.25559e-06 W
            Runtime Dynamic = 0.00081738 W

              Integer RF:
                Area = 0.0104929 mm^2
                Peak Dynamic = 0.00359776 W
                Subthreshold Leakage = 0.00030625 W
                Subthreshold Leakage with power gating = 0.000221208 W
                Gate Leakage = 1.1278e-06 W
                Runtime Dynamic = 0.000370787 W

              Floating Point RF:
                Area = 0.0104929 mm^2
                Peak Dynamic = 0.000809495 W
                Subthreshold Leakage = 0.00030625 W
                Subthreshold Leakage with power gating = 0.000221208 W
                Gate Leakage = 1.1278e-06 W
                Runtime Dynamic = 0.000446593 W

          Instruction Scheduler:
            Area = 0.0105938 mm^2
            Peak Dynamic = 0.00438496 W
            Subthreshold Leakage = 0.000834334 W
            Subthreshold Leakage with power gating = 0.00060965 W
            Gate Leakage = 3.58533e-06 W
            Runtime Dynamic = 1.74018e-05 W

              Instruction Window:
                Area = 0.00227797 mm^2
                Peak Dynamic = 0.000953473 W
                Subthreshold Leakage = 0.000238919 W
                Subthreshold Leakage with power gating = 0.000172022 W
                Gate Leakage = 1.20626e-06 W
                Runtime Dynamic = 1.74018e-05 W

              FP Instruction Window:
                Area = 0.00368417 mm^2
                Peak Dynamic = 0.00174363 W
                Subthreshold Leakage = 0.000415886 W
                Subthreshold Leakage with power gating = 0.000299438 W
                Gate Leakage = 1.83779e-06 W
                Runtime Dynamic = 0 W

              ROB:
                Area = 0.00463165 mm^2
                Peak Dynamic = 0.00168785 W
                Subthreshold Leakage = 0.000179529 W
                Subthreshold Leakage with power gating = 0.00013819 W
                Gate Leakage = 5.4128e-07 W
                Runtime Dynamic = 0 W

          Integer ALUs (Count: 1 ):
            Area = 0.0483427 mm^2
            Peak Dynamic = 0.0461977 W
            Subthreshold Leakage = 0.0252096 W
            Subthreshold Leakage with power gating = 0.0181509 W
            Gate Leakage = 0.000104731 W
            Runtime Dynamic = 0.0265201 W

          Floating Point Units (FPUs) (Count: 1 ):
            Area = 0.901794 mm^2
            Peak Dynamic = 0.0415779 W
            Subthreshold Leakage = 0.117566 W
            Subthreshold Leakage with power gating = 0.0846475 W
            Gate Leakage = 0.000488418 W
            Runtime Dynamic = 0.0746599 W

          Complex ALUs (Mul/Div) (Count: 1 ):
            Area = 0.145028 mm^2
            Peak Dynamic = 0.0277186 W
            Subthreshold Leakage = 0.0756287 W
            Subthreshold Leakage with power gating = 0.0544526 W
            Gate Leakage = 0.000314193 W
            Runtime Dynamic = 0.0498786 W

          Results Broadcast Bus:
            Area Overhead = 0.00481275 mm^2
            Peak Dynamic = 0.0400488 W
            Subthreshold Leakage = 0.0104462 W
            Subthreshold Leakage with power gating = 0.00752125 W
            Gate Leakage = 4.33978e-05 W
            Runtime Dynamic = 0 W

*****************************************************************************************
Core:
      Area = 4.50244 mm^2
      Peak Dynamic = 0.424571 W
      Subthreshold Leakage = 0.908065 W
      Subthreshold Leakage with power gating = 0.665436 W
      Gate Leakage = 0.00366702 W
      Runtime Dynamic = 0.178713 W

      Instruction Fetch Unit:
        Area = 0.791739 mm^2
        Peak Dynamic = 0.0865259 W
        Subthreshold Leakage = 0.126052 W
        Subthreshold Leakage with power gating = 0.0965958 W
        Gate Leakage = 0.000454771 W
        Runtime Dynamic = 0.00456919 W

          Instruction Cache:
            Area = 0.726697 mm^2
            Peak Dynamic = 0.0764274 W
            Subthreshold Leakage = 0.120172 W
            Subthreshold Leakage with power gating = 0.0922399 W
            Gate Leakage = 0.000430086 W
            Runtime Dynamic = 0.00167107 W

          Branch Target Buffer:
            Area = 0.0545931 mm^2
            Peak Dynamic = 0.00214156 W
            Subthreshold Leakage = 0.00308708 W
            Subthreshold Leakage with power gating = 0.00231303 W
            Gate Leakage = 5.3839e-06 W
            Runtime Dynamic = 0 W

          Branch Predictor:
            Area = 0.00582312 mm^2
            Peak Dynamic = 0.000776521 W
            Subthreshold Leakage = 0.000420341 W
            Subthreshold Leakage with power gating = 0.000331081 W
            Gate Leakage = 2.04177e-06 W
            Runtime Dynamic = 1.7882e-05 W

              Global Predictor:
                Area = 0.000832803 mm^2
                Peak Dynamic = 6.36785e-05 W
                Subthreshold Leakage = 7.53472e-05 W
                Subthreshold Leakage with power gating = 5.95709e-05 W
                Gate Leakage = 4.18718e-07 W
                Runtime Dynamic = 4.47049e-06 W

              Local Predictor:
              L1_Local Predictor:
                Area = 0.000832803 mm^2
                Peak Dynamic = 6.36785e-05 W
                Subthreshold Leakage = 7.53472e-05 W
                Subthreshold Leakage with power gating = 5.95709e-05 W
                Gate Leakage = 4.18718e-07 W
                Runtime Dynamic = 4.47049e-06 W

              L2_Local Predictor:
                Area = 0.000832803 mm^2
                Peak Dynamic = 6.36785e-05 W
                Subthreshold Leakage = 7.53472e-05 W
                Subthreshold Leakage with power gating = 5.95709e-05 W
                Gate Leakage = 4.18718e-07 W
                Runtime Dynamic = 4.47049e-06 W

              Chooser:
                Area = 0.000832803 mm^2
                Peak Dynamic = 6.36785e-05 W
                Subthreshold Leakage = 7.53472e-05 W
                Subthreshold Leakage with power gating = 5.95709e-05 W
                Gate Leakage = 4.18718e-07 W
                Runtime Dynamic = 4.47049e-06 W

              RAS:
                Area = 0.00249191 mm^2
                Peak Dynamic = 0.000521807 W
                Subthreshold Leakage = 0.000118953 W
                Subthreshold Leakage with power gating = 9.27973e-05 W
                Gate Leakage = 3.66901e-07 W
                Runtime Dynamic = 0 W

          Instruction Buffer:
            Area = 0.000562161 mm^2
            Peak Dynamic = 0.000337116 W
            Subthreshold Leakage = 4.71025e-05 W
            Subthreshold Leakage with power gating = 3.76535e-05 W
            Gate Leakage = 1.47028e-07 W
            Runtime Dynamic = 0.000136424 W

          Instruction Decoder:
            Area = 0.0010919 mm^2
            Peak Dynamic = 0.00628601 W
            Subthreshold Leakage = 0.000989737 W
            Subthreshold Leakage with power gating = 0.00071261 W
            Gate Leakage = 3.15098e-06 W
            Runtime Dynamic = 0.00254383 W

      Renaming Unit:
        Area = 0.0181078 mm^2
        Peak Dynamic = 0.00451698 W
        Subthreshold Leakage = 0.00236956 W
        Subthreshold Leakage with power gating = 0.00177039 W
        Gate Leakage = 1.78405e-05 W
        Runtime Dynamic = 0.000837325 W

          Int Front End RAT:
            Area = 0.00908635 mm^2
            Peak Dynamic = 0.00118157 W
            Subthreshold Leakage = 0.00061222 W
            Subthreshold Leakage with power gating = 0.00047961 W
            Gate Leakage = 1.70284e-06 W
            Runtime Dynamic = 3.20044e-05 W

          FP Front End RAT:
            Area = 0.00170308 mm^2
            Peak Dynamic = 0.000389155 W
            Subthreshold Leakage = 0.000100873 W
            Subthreshold Leakage with power gating = 7.76983e-05 W
            Gate Leakage = 4.02661e-07 W
            Runtime Dynamic = 0 W

          Free List:
            Area = 0.00134079 mm^2
            Peak Dynamic = 0.000191137 W
            Subthreshold Leakage = 8.52034e-05 W
            Subthreshold Leakage with power gating = 6.62383e-05 W
            Gate Leakage = 4.68186e-07 W
            Runtime Dynamic = 5.36419e-06 W

          Int Retire RAT: 
            Area = 0.000832803 mm^2
            Peak Dynamic = 0.000167407 W
            Subthreshold Leakage = 7.53472e-05 W
            Subthreshold Leakage with power gating = 5.95709e-05 W
            Gate Leakage = 4.18718e-07 W
            Runtime Dynamic = 0 W

          FP Retire RAT:
            Area = 0.000832803 mm^2
            Peak Dynamic = 0.000167407 W
            Subthreshold Leakage = 7.53472e-05 W
            Subthreshold Leakage with power gating = 5.95709e-05 W
            Gate Leakage = 4.18718e-07 W
            Runtime Dynamic = 0 W

          FP Free List:
            Area = 0.00134079 mm^2
            Peak Dynamic = 0.000191137 W
            Subthreshold Leakage = 8.52034e-05 W
            Subthreshold Leakage with power gating = 6.62383e-05 W
            Gate Leakage = 4.68186e-07 W
            Runtime Dynamic = 0 W

      Load Store Unit:
        Area = 1.02847 mm^2
        Peak Dynamic = 0.163865 W
        Subthreshold Leakage = 0.153422 W
        Subthreshold Leakage with power gating = 0.11618 W
        Gate Leakage = 0.000577719 W
        Runtime Dynamic = 0.0202517 W

          Data Cache:
            Area = 0.882951 mm^2
            Peak Dynamic = 0.157713 W
            Subthreshold Leakage = 0.14636 W
            Subthreshold Leakage with power gating = 0.111096 W
            Gate Leakage = 0.000539647 W
            Runtime Dynamic = 0.00887015 W

          LoadQ:
            Area = 0.0246589 mm^2
            Peak Dynamic = 0.00279776 W
            Subthreshold Leakage = 0.00286303 W
            Subthreshold Leakage with power gating = 0.00206138 W
            Gate Leakage = 1.20553e-05 W
            Runtime Dynamic = 0.00372718 W

          StoreQ:
            Area = 0.0246589 mm^2
            Peak Dynamic = 0.00279776 W
            Subthreshold Leakage = 0.00286303 W
            Subthreshold Leakage with power gating = 0.00206138 W
            Gate Leakage = 1.20553e-05 W
            Runtime Dynamic = 0.00745435 W

      Memory Management Unit:
        Area = 0.0416728 mm^2
        Peak Dynamic = 0.00309789 W
        Subthreshold Leakage = 0.00662968 W
        Subthreshold Leakage with power gating = 0.00477337 W
        Runtime Dynamic = 0.000499973 W

          Itlb:
            Area = 0.0193508 mm^2
            Peak Dynamic = 0.000852331 W
            Subthreshold Leakage = 0.00264716 W
            Subthreshold Leakage with power gating = 0.00190595 W
            Gate Leakage = 1.02204e-05 W
            Runtime Dynamic = 0 W

          Dtlb:
            Area = 0.0193508 mm^2
            Peak Dynamic = 0.000852331 W
            Subthreshold Leakage = 0.00264716 W
            Subthreshold Leakage with power gating = 0.00190595 W
            Gate Leakage = 1.02204e-05 W
            Runtime Dynamic = 0 W

      Execution Unit:
        Area = 1.13453 mm^2
        Peak Dynamic = 0.166564 W
        Subthreshold Leakage = 0.231633 W
        Subthreshold Leakage with power gating = 0.166786 W
        Runtime Dynamic = 0.152555 W

          Register Files:
            Area = 0.0209859 mm^2
            Peak Dynamic = 0.00440725 W
            Subthreshold Leakage = 0.000612501 W
            Subthreshold Leakage with power gating = 0.000442416 W
            Gate Leakage = 2.25559e-06 W
            Runtime Dynamic = 0.000761518 W

              Integer RF:
                Area = 0.0104929 mm^2
                Peak Dynamic = 0.00359776 W
                Subthreshold Leakage = 0.00030625 W
                Subthreshold Leakage with power gating = 0.000221208 W
                Gate Leakage = 1.1278e-06 W
                Runtime Dynamic = 0.000349607 W

              Floating Point RF:
                Area = 0.0104929 mm^2
                Peak Dynamic = 0.000809495 W
                Subthreshold Leakage = 0.00030625 W
                Subthreshold Leakage with power gating = 0.000221208 W
                Gate Leakage = 1.1278e-06 W
                Runtime Dynamic = 0.000411911 W

          Instruction Scheduler:
            Area = 0.0105938 mm^2
            Peak Dynamic = 0.00438496 W
            Subthreshold Leakage = 0.000834334 W
            Subthreshold Leakage with power gating = 0.00060965 W
            Gate Leakage = 3.58533e-06 W
            Runtime Dynamic = 1.65075e-05 W

              Instruction Window:
                Area = 0.00227797 mm^2
                Peak Dynamic = 0.000953473 W
                Subthreshold Leakage = 0.000238919 W
                Subthreshold Leakage with power gating = 0.000172022 W
                Gate Leakage = 1.20626e-06 W
                Runtime Dynamic = 1.65075e-05 W

              FP Instruction Window:
                Area = 0.00368417 mm^2
                Peak Dynamic = 0.00174363 W
                Subthreshold Leakage = 0.000415886 W
                Subthreshold Leakage with power gating = 0.000299438 W
                Gate Leakage = 1.83779e-06 W
                Runtime Dynamic = 0 W

              ROB:
                Area = 0.00463165 mm^2
                Peak Dynamic = 0.00168785 W
                Subthreshold Leakage = 0.000179529 W
                Subthreshold Leakage with power gating = 0.00013819 W
                Gate Leakage = 5.4128e-07 W
                Runtime Dynamic = 0 W

          Integer ALUs (Count: 1 ):
            Area = 0.0483427 mm^2
            Peak Dynamic = 0.0461977 W
            Subthreshold Leakage = 0.0252096 W
            Subthreshold Leakage with power gating = 0.0181509 W
            Gate Leakage = 0.000104731 W
            Runtime Dynamic = 0.0264286 W

          Floating Point Units (FPUs) (Count: 1 ):
            Area = 0.901794 mm^2
            Peak Dynamic = 0.0415779 W
            Subthreshold Leakage = 0.117566 W
            Subthreshold Leakage with power gating = 0.0846475 W
            Gate Leakage = 0.000488418 W
            Runtime Dynamic = 0.0746599 W

          Complex ALUs (Mul/Div) (Count: 1 ):
            Area = 0.145028 mm^2
            Peak Dynamic = 0.0277186 W
            Subthreshold Leakage = 0.0756287 W
            Subthreshold Leakage with power gating = 0.0544526 W
            Gate Leakage = 0.000314193 W
            Runtime Dynamic = 0.0498883 W

          Results Broadcast Bus:
            Area Overhead = 0.00481275 mm^2
            Peak Dynamic = 0.0400488 W
            Subthreshold Leakage = 0.0104462 W
            Subthreshold Leakage with power gating = 0.00752125 W
            Gate Leakage = 4.33978e-05 W
            Runtime Dynamic = 0 W

*****************************************************************************************
Core:
      Area = 4.50244 mm^2
      Peak Dynamic = 0.424571 W
      Subthreshold Leakage = 0.908065 W
      Subthreshold Leakage with power gating = 0.665436 W
      Gate Leakage = 0.00366702 W
      Runtime Dynamic = 0.179217 W

      Instruction Fetch Unit:
        Area = 0.791739 mm^2
        Peak Dynamic = 0.0865259 W
        Subthreshold Leakage = 0.126052 W
        Subthreshold Leakage with power gating = 0.0965958 W
        Gate Leakage = 0.000454771 W
        Runtime Dynamic = 0.00463525 W

          Instruction Cache:
            Area = 0.726697 mm^2
            Peak Dynamic = 0.0764274 W
            Subthreshold Leakage = 0.120172 W
            Subthreshold Leakage with power gating = 0.0922399 W
            Gate Leakage = 0.000430086 W
            Runtime Dynamic = 0.00168865 W

          Branch Target Buffer:
            Area = 0.0545931 mm^2
            Peak Dynamic = 0.00214156 W
            Subthreshold Leakage = 0.00308708 W
            Subthreshold Leakage with power gating = 0.00231303 W
            Gate Leakage = 5.3839e-06 W
            Runtime Dynamic = 0 W

          Branch Predictor:
            Area = 0.00582312 mm^2
            Peak Dynamic = 0.000776521 W
            Subthreshold Leakage = 0.000420341 W
            Subthreshold Leakage with power gating = 0.000331081 W
            Gate Leakage = 2.04177e-06 W
            Runtime Dynamic = 1.80672e-05 W

              Global Predictor:
                Area = 0.000832803 mm^2
                Peak Dynamic = 6.36785e-05 W
                Subthreshold Leakage = 7.53472e-05 W
                Subthreshold Leakage with power gating = 5.95709e-05 W
                Gate Leakage = 4.18718e-07 W
                Runtime Dynamic = 4.51679e-06 W

              Local Predictor:
              L1_Local Predictor:
                Area = 0.000832803 mm^2
                Peak Dynamic = 6.36785e-05 W
                Subthreshold Leakage = 7.53472e-05 W
                Subthreshold Leakage with power gating = 5.95709e-05 W
                Gate Leakage = 4.18718e-07 W
                Runtime Dynamic = 4.51679e-06 W

              L2_Local Predictor:
                Area = 0.000832803 mm^2
                Peak Dynamic = 6.36785e-05 W
                Subthreshold Leakage = 7.53472e-05 W
                Subthreshold Leakage with power gating = 5.95709e-05 W
                Gate Leakage = 4.18718e-07 W
                Runtime Dynamic = 4.51679e-06 W

              Chooser:
                Area = 0.000832803 mm^2
                Peak Dynamic = 6.36785e-05 W
                Subthreshold Leakage = 7.53472e-05 W
                Subthreshold Leakage with power gating = 5.95709e-05 W
                Gate Leakage = 4.18718e-07 W
                Runtime Dynamic = 4.51679e-06 W

              RAS:
                Area = 0.00249191 mm^2
                Peak Dynamic = 0.000521807 W
                Subthreshold Leakage = 0.000118953 W
                Subthreshold Leakage with power gating = 9.27973e-05 W
                Gate Leakage = 3.66901e-07 W
                Runtime Dynamic = 0 W

          Instruction Buffer:
            Area = 0.000562161 mm^2
            Peak Dynamic = 0.000337116 W
            Subthreshold Leakage = 4.71025e-05 W
            Subthreshold Leakage with power gating = 3.76535e-05 W
            Gate Leakage = 1.47028e-07 W
            Runtime Dynamic = 0.000138691 W

          Instruction Decoder:
            Area = 0.0010919 mm^2
            Peak Dynamic = 0.00628601 W
            Subthreshold Leakage = 0.000989737 W
            Subthreshold Leakage with power gating = 0.00071261 W
            Gate Leakage = 3.15098e-06 W
            Runtime Dynamic = 0.0025861 W

      Renaming Unit:
        Area = 0.0181078 mm^2
        Peak Dynamic = 0.00451698 W
        Subthreshold Leakage = 0.00236956 W
        Subthreshold Leakage with power gating = 0.00177039 W
        Gate Leakage = 1.78405e-05 W
        Runtime Dynamic = 0.000854361 W

          Int Front End RAT:
            Area = 0.00908635 mm^2
            Peak Dynamic = 0.00118157 W
            Subthreshold Leakage = 0.00061222 W
            Subthreshold Leakage with power gating = 0.00047961 W
            Gate Leakage = 1.70284e-06 W
            Runtime Dynamic = 3.37093e-05 W

          FP Front End RAT:
            Area = 0.00170308 mm^2
            Peak Dynamic = 0.000389155 W
            Subthreshold Leakage = 0.000100873 W
            Subthreshold Leakage with power gating = 7.76983e-05 W
            Gate Leakage = 4.02661e-07 W
            Runtime Dynamic = 0 W

          Free List:
            Area = 0.00134079 mm^2
            Peak Dynamic = 0.000191137 W
            Subthreshold Leakage = 8.52034e-05 W
            Subthreshold Leakage with power gating = 6.62383e-05 W
            Gate Leakage = 4.68186e-07 W
            Runtime Dynamic = 5.64995e-06 W

          Int Retire RAT: 
            Area = 0.000832803 mm^2
            Peak Dynamic = 0.000167407 W
            Subthreshold Leakage = 7.53472e-05 W
            Subthreshold Leakage with power gating = 5.95709e-05 W
            Gate Leakage = 4.18718e-07 W
            Runtime Dynamic = 0 W

          FP Retire RAT:
            Area = 0.000832803 mm^2
            Peak Dynamic = 0.000167407 W
            Subthreshold Leakage = 7.53472e-05 W
            Subthreshold Leakage with power gating = 5.95709e-05 W
            Gate Leakage = 4.18718e-07 W
            Runtime Dynamic = 0 W

          FP Free List:
            Area = 0.00134079 mm^2
            Peak Dynamic = 0.000191137 W
            Subthreshold Leakage = 8.52034e-05 W
            Subthreshold Leakage with power gating = 6.62383e-05 W
            Gate Leakage = 4.68186e-07 W
            Runtime Dynamic = 0 W

      Load Store Unit:
        Area = 1.02847 mm^2
        Peak Dynamic = 0.163865 W
        Subthreshold Leakage = 0.153422 W
        Subthreshold Leakage with power gating = 0.11618 W
        Gate Leakage = 0.000577719 W
        Runtime Dynamic = 0.0205475 W

          Data Cache:
            Area = 0.882951 mm^2
            Peak Dynamic = 0.157713 W
            Subthreshold Leakage = 0.14636 W
            Subthreshold Leakage with power gating = 0.111096 W
            Gate Leakage = 0.000539647 W
            Runtime Dynamic = 0.00896856 W

          LoadQ:
            Area = 0.0246589 mm^2
            Peak Dynamic = 0.00279776 W
            Subthreshold Leakage = 0.00286303 W
            Subthreshold Leakage with power gating = 0.00206138 W
            Gate Leakage = 1.20553e-05 W
            Runtime Dynamic = 0.00379172 W

          StoreQ:
            Area = 0.0246589 mm^2
            Peak Dynamic = 0.00279776 W
            Subthreshold Leakage = 0.00286303 W
            Subthreshold Leakage with power gating = 0.00206138 W
            Gate Leakage = 1.20553e-05 W
            Runtime Dynamic = 0.00758344 W

      Memory Management Unit:
        Area = 0.0416728 mm^2
        Peak Dynamic = 0.00309789 W
        Subthreshold Leakage = 0.00662968 W
        Subthreshold Leakage with power gating = 0.00477337 W
        Runtime Dynamic = 0.000509376 W

          Itlb:
            Area = 0.0193508 mm^2
            Peak Dynamic = 0.000852331 W
            Subthreshold Leakage = 0.00264716 W
            Subthreshold Leakage with power gating = 0.00190595 W
            Gate Leakage = 1.02204e-05 W
            Runtime Dynamic = 0 W

          Dtlb:
            Area = 0.0193508 mm^2
            Peak Dynamic = 0.000852331 W
            Subthreshold Leakage = 0.00264716 W
            Subthreshold Leakage with power gating = 0.00190595 W
            Gate Leakage = 1.02204e-05 W
            Runtime Dynamic = 0 W

      Execution Unit:
        Area = 1.13453 mm^2
        Peak Dynamic = 0.166564 W
        Subthreshold Leakage = 0.231633 W
        Subthreshold Leakage with power gating = 0.166786 W
        Runtime Dynamic = 0.15267 W

          Register Files:
            Area = 0.0209859 mm^2
            Peak Dynamic = 0.00440725 W
            Subthreshold Leakage = 0.000612501 W
            Subthreshold Leakage with power gating = 0.000442416 W
            Gate Leakage = 2.25559e-06 W
            Runtime Dynamic = 0.00077655 W

              Integer RF:
                Area = 0.0104929 mm^2
                Peak Dynamic = 0.00359776 W
                Subthreshold Leakage = 0.00030625 W
                Subthreshold Leakage with power gating = 0.000221208 W
                Gate Leakage = 1.1278e-06 W
                Runtime Dynamic = 0.000359088 W

              Floating Point RF:
                Area = 0.0104929 mm^2
                Peak Dynamic = 0.000809495 W
                Subthreshold Leakage = 0.00030625 W
                Subthreshold Leakage with power gating = 0.000221208 W
                Gate Leakage = 1.1278e-06 W
                Runtime Dynamic = 0.000417462 W

          Instruction Scheduler:
            Area = 0.0105938 mm^2
            Peak Dynamic = 0.00438496 W
            Subthreshold Leakage = 0.000834334 W
            Subthreshold Leakage with power gating = 0.00060965 W
            Gate Leakage = 3.58533e-06 W
            Runtime Dynamic = 1.73869e-05 W

              Instruction Window:
                Area = 0.00227797 mm^2
                Peak Dynamic = 0.000953473 W
                Subthreshold Leakage = 0.000238919 W
                Subthreshold Leakage with power gating = 0.000172022 W
                Gate Leakage = 1.20626e-06 W
                Runtime Dynamic = 1.73869e-05 W

              FP Instruction Window:
                Area = 0.00368417 mm^2
                Peak Dynamic = 0.00174363 W
                Subthreshold Leakage = 0.000415886 W
                Subthreshold Leakage with power gating = 0.000299438 W
                Gate Leakage = 1.83779e-06 W
                Runtime Dynamic = 0 W

              ROB:
                Area = 0.00463165 mm^2
                Peak Dynamic = 0.00168785 W
                Subthreshold Leakage = 0.000179529 W
                Subthreshold Leakage with power gating = 0.00013819 W
                Gate Leakage = 5.4128e-07 W
                Runtime Dynamic = 0 W

          Integer ALUs (Count: 1 ):
            Area = 0.0483427 mm^2
            Peak Dynamic = 0.0461977 W
            Subthreshold Leakage = 0.0252096 W
            Subthreshold Leakage with power gating = 0.0181509 W
            Gate Leakage = 0.000104731 W
            Runtime Dynamic = 0.0265145 W

          Floating Point Units (FPUs) (Count: 1 ):
            Area = 0.901794 mm^2
            Peak Dynamic = 0.0415779 W
            Subthreshold Leakage = 0.117566 W
            Subthreshold Leakage with power gating = 0.0846475 W
            Gate Leakage = 0.000488418 W
            Runtime Dynamic = 0.0746599 W

          Complex ALUs (Mul/Div) (Count: 1 ):
            Area = 0.145028 mm^2
            Peak Dynamic = 0.0277186 W
            Subthreshold Leakage = 0.0756287 W
            Subthreshold Leakage with power gating = 0.0544526 W
            Gate Leakage = 0.000314193 W
            Runtime Dynamic = 0.0498869 W

          Results Broadcast Bus:
            Area Overhead = 0.00481275 mm^2
            Peak Dynamic = 0.0400488 W
            Subthreshold Leakage = 0.0104462 W
            Subthreshold Leakage with power gating = 0.00752125 W
            Gate Leakage = 4.33978e-05 W
            Runtime Dynamic = 0 W

*****************************************************************************************
Core:
      Area = 3.68846 mm^2
      Peak Dynamic = 0.356579 W
      Subthreshold Leakage = 0.598087 W
      Subthreshold Leakage with power gating = 0.43124 W
      Gate Leakage = 0.00306614 W
      Runtime Dynamic = 0.0225545 W

      Instruction Fetch Unit:
        Area = 0.657112 mm^2
        Peak Dynamic = 0.0841372 W
        Subthreshold Leakage = 0.0798172 W
        Subthreshold Leakage with power gating = 0.0578269 W
        Gate Leakage = 0.000409326 W
        Runtime Dynamic = 0.0106834 W

          Instruction Cache:
            Area = 0.588595 mm^2
            Peak Dynamic = 0.0733869 W
            Subthreshold Leakage = 0.0736664 W
            Subthreshold Leakage with power gating = 0.0532972 W
            Gate Leakage = 0.000368313 W
            Runtime Dynamic = 0.00893918 W

          Branch Target Buffer:
            Area = 0.0545931 mm^2
            Peak Dynamic = 0.00214156 W
            Subthreshold Leakage = 0.00255165 W
            Subthreshold Leakage with power gating = 0.00191185 W
            Gate Leakage = 5.3839e-06 W
            Runtime Dynamic = 0 W

          Branch Predictor:
            Area = 0.00582312 mm^2
            Peak Dynamic = 0.000776521 W
            Subthreshold Leakage = 0.000347436 W
            Subthreshold Leakage with power gating = 0.000273657 W
            Gate Leakage = 2.04177e-06 W
            Runtime Dynamic = 0 W

              Global Predictor:
                Area = 0.000832803 mm^2
                Peak Dynamic = 6.36785e-05 W
                Subthreshold Leakage = 6.22787e-05 W
                Subthreshold Leakage with power gating = 4.92388e-05 W
                Gate Leakage = 4.18718e-07 W
                Runtime Dynamic = 0 W

              Local Predictor:
              L1_Local Predictor:
                Area = 0.000832803 mm^2
                Peak Dynamic = 6.36785e-05 W
                Subthreshold Leakage = 6.22787e-05 W
                Subthreshold Leakage with power gating = 4.92388e-05 W
                Gate Leakage = 4.18718e-07 W
                Runtime Dynamic = 0 W

              L2_Local Predictor:
                Area = 0.000832803 mm^2
                Peak Dynamic = 6.36785e-05 W
                Subthreshold Leakage = 6.22787e-05 W
                Subthreshold Leakage with power gating = 4.92388e-05 W
                Gate Leakage = 4.18718e-07 W
                Runtime Dynamic = 0 W

              Chooser:
                Area = 0.000832803 mm^2
                Peak Dynamic = 6.36785e-05 W
                Subthreshold Leakage = 6.22787e-05 W
                Subthreshold Leakage with power gating = 4.92388e-05 W
                Gate Leakage = 4.18718e-07 W
                Runtime Dynamic = 0 W

              RAS:
                Area = 0.00249191 mm^2
                Peak Dynamic = 0.000521807 W
                Subthreshold Leakage = 9.83212e-05 W
                Subthreshold Leakage with power gating = 7.67022e-05 W
                Gate Leakage = 3.66901e-07 W
                Runtime Dynamic = 0 W

          Instruction Buffer:
            Area = 0.000562161 mm^2
            Peak Dynamic = 0.000337116 W
            Subthreshold Leakage = 3.89329e-05 W
            Subthreshold Leakage with power gating = 3.11228e-05 W
            Gate Leakage = 1.47028e-07 W
            Runtime Dynamic = 7.50786e-05 W

          Instruction Decoder:
            Area = 0.0010919 mm^2
            Peak Dynamic = 0.00628601 W
            Subthreshold Leakage = 0.000818074 W
            Subthreshold Leakage with power gating = 0.000589013 W
            Gate Leakage = 3.15098e-06 W
            Runtime Dynamic = 0.00139995 W

      Load Store Unit:
        Area = 0.852905 mm^2
        Peak Dynamic = 0.157824 W
        Subthreshold Leakage = 0.100074 W
        Subthreshold Leakage with power gating = 0.0723104 W
        Gate Leakage = 0.000520218 W
        Runtime Dynamic = 0.00902229 W

          Data Cache:
            Area = 0.744849 mm^2
            Peak Dynamic = 0.153817 W
            Subthreshold Leakage = 0.0953126 W
            Subthreshold Leakage with power gating = 0.0688824 W
            Gate Leakage = 0.000477874 W
            Runtime Dynamic = 0.00425542 W

          Load/Store Queue:
            Area = 0.0246589 mm^2
            Peak Dynamic = 0.00279776 W
            Subthreshold Leakage = 0.00236645 W
            Subthreshold Leakage with power gating = 0.00170385 W
            Gate Leakage = 1.20553e-05 W
            Runtime Dynamic = 0.00449766 W

      Memory Management Unit:
        Area = 0.0451477 mm^2
        Peak Dynamic = 0.00472733 W
        Subthreshold Leakage = 0.0067707 W
        Subthreshold Leakage with power gating = 0.0048749 W
        Runtime Dynamic = 0.000673043 W

          Itlb:
            Area = 0.0193508 mm^2
            Peak Dynamic = 0.000852331 W
            Subthreshold Leakage = 0.00218803 W
            Subthreshold Leakage with power gating = 0.00157538 W
            Gate Leakage = 1.02204e-05 W
            Runtime Dynamic = 0 W

          Dtlb:
            Area = 0.0193508 mm^2
            Peak Dynamic = 0.000852331 W
            Subthreshold Leakage = 0.00218803 W
            Subthreshold Leakage with power gating = 0.00157538 W
            Gate Leakage = 1.02204e-05 W
            Runtime Dynamic = 0 W

      Execution Unit:
        Area = 1.12881 mm^2
        Peak Dynamic = 0.10989 W
        Subthreshold Leakage = 0.194945 W
        Subthreshold Leakage with power gating = 0.140361 W
        Runtime Dynamic = 0.00217578 W

          Register Files:
            Area = 0.0209859 mm^2
            Peak Dynamic = 0.00440725 W
            Subthreshold Leakage = 0.000506267 W
            Subthreshold Leakage with power gating = 0.000365682 W
            Gate Leakage = 2.25559e-06 W
            Runtime Dynamic = 0 W

              Integer RF:
                Area = 0.0104929 mm^2
                Peak Dynamic = 0.00359776 W
                Subthreshold Leakage = 0.000253133 W
                Subthreshold Leakage with power gating = 0.000182841 W
                Gate Leakage = 1.1278e-06 W
                Runtime Dynamic = 0 W

              Floating Point RF:
                Area = 0.0104929 mm^2
                Peak Dynamic = 0.000809495 W
                Subthreshold Leakage = 0.000253133 W
                Subthreshold Leakage with power gating = 0.000182841 W
                Gate Leakage = 1.1278e-06 W
                Runtime Dynamic = 0 W

          Instruction Scheduler:
            Area = 0 mm^2
            Peak Dynamic = 0 W
            Subthreshold Leakage = 0 W
            Subthreshold Leakage with power gating = 0 W
            Gate Leakage = 0 W
            Runtime Dynamic = 0 W

          Integer ALUs (Count: 1 ):
            Area = 0.0483427 mm^2
            Peak Dynamic = 0.0213111 W
            Subthreshold Leakage = 0.0208371 W
            Subthreshold Leakage with power gating = 0.0150027 W
            Gate Leakage = 0.000104731 W
            Runtime Dynamic = 0.00103588 W

          Floating Point Units (FPUs) (Count: 1 ):
            Area = 0.901794 mm^2
            Peak Dynamic = 0.01918 W
            Subthreshold Leakage = 0.0971749 W
            Subthreshold Leakage with power gating = 0.0699659 W
            Gate Leakage = 0.000488418 W
            Runtime Dynamic = 0 W

          Complex ALUs (Mul/Div) (Count: 1 ):
            Area = 0.145028 mm^2
            Peak Dynamic = 0.0127866 W
            Subthreshold Leakage = 0.0625114 W
            Subthreshold Leakage with power gating = 0.0450082 W
            Gate Leakage = 0.000314193 W
            Runtime Dynamic = 6.30358e-05 W

          Results Broadcast Bus:
            Area Overhead = 0.00621299 mm^2
            Peak Dynamic = 0.047369 W
            Subthreshold Leakage = 0.0115202 W
            Subthreshold Leakage with power gating = 0.00829458 W
            Gate Leakage = 5.79028e-05 W
            Runtime Dynamic = 0 W

*****************************************************************************************
Core:
      Area = 3.68846 mm^2
      Peak Dynamic = 0.356579 W
      Subthreshold Leakage = 0.598087 W
      Subthreshold Leakage with power gating = 0.43124 W
      Gate Leakage = 0.00306614 W
      Runtime Dynamic = 0.0228457 W

      Instruction Fetch Unit:
        Area = 0.657112 mm^2
        Peak Dynamic = 0.0841372 W
        Subthreshold Leakage = 0.0798172 W
        Subthreshold Leakage with power gating = 0.0578269 W
        Gate Leakage = 0.000409326 W
        Runtime Dynamic = 0.0108289 W

          Instruction Cache:
            Area = 0.588595 mm^2
            Peak Dynamic = 0.0733869 W
            Subthreshold Leakage = 0.0736664 W
            Subthreshold Leakage with power gating = 0.0532972 W
            Gate Leakage = 0.000368313 W
            Runtime Dynamic = 0.00906143 W

          Branch Target Buffer:
            Area = 0.0545931 mm^2
            Peak Dynamic = 0.00214156 W
            Subthreshold Leakage = 0.00255165 W
            Subthreshold Leakage with power gating = 0.00191185 W
            Gate Leakage = 5.3839e-06 W
            Runtime Dynamic = 0 W

          Branch Predictor:
            Area = 0.00582312 mm^2
            Peak Dynamic = 0.000776521 W
            Subthreshold Leakage = 0.000347436 W
            Subthreshold Leakage with power gating = 0.000273657 W
            Gate Leakage = 2.04177e-06 W
            Runtime Dynamic = 0 W

              Global Predictor:
                Area = 0.000832803 mm^2
                Peak Dynamic = 6.36785e-05 W
                Subthreshold Leakage = 6.22787e-05 W
                Subthreshold Leakage with power gating = 4.92388e-05 W
                Gate Leakage = 4.18718e-07 W
                Runtime Dynamic = 0 W

              Local Predictor:
              L1_Local Predictor:
                Area = 0.000832803 mm^2
                Peak Dynamic = 6.36785e-05 W
                Subthreshold Leakage = 6.22787e-05 W
                Subthreshold Leakage with power gating = 4.92388e-05 W
                Gate Leakage = 4.18718e-07 W
                Runtime Dynamic = 0 W

              L2_Local Predictor:
                Area = 0.000832803 mm^2
                Peak Dynamic = 6.36785e-05 W
                Subthreshold Leakage = 6.22787e-05 W
                Subthreshold Leakage with power gating = 4.92388e-05 W
                Gate Leakage = 4.18718e-07 W
                Runtime Dynamic = 0 W

              Chooser:
                Area = 0.000832803 mm^2
                Peak Dynamic = 6.36785e-05 W
                Subthreshold Leakage = 6.22787e-05 W
                Subthreshold Leakage with power gating = 4.92388e-05 W
                Gate Leakage = 4.18718e-07 W
                Runtime Dynamic = 0 W

              RAS:
                Area = 0.00249191 mm^2
                Peak Dynamic = 0.000521807 W
                Subthreshold Leakage = 9.83212e-05 W
                Subthreshold Leakage with power gating = 7.67022e-05 W
                Gate Leakage = 3.66901e-07 W
                Runtime Dynamic = 0 W

          Instruction Buffer:
            Area = 0.000562161 mm^2
            Peak Dynamic = 0.000337116 W
            Subthreshold Leakage = 3.89329e-05 W
            Subthreshold Leakage with power gating = 3.11228e-05 W
            Gate Leakage = 1.47028e-07 W
            Runtime Dynamic = 7.60771e-05 W

          Instruction Decoder:
            Area = 0.0010919 mm^2
            Peak Dynamic = 0.00628601 W
            Subthreshold Leakage = 0.000818074 W
            Subthreshold Leakage with power gating = 0.000589013 W
            Gate Leakage = 3.15098e-06 W
            Runtime Dynamic = 0.00141857 W

      Load Store Unit:
        Area = 0.852905 mm^2
        Peak Dynamic = 0.157824 W
        Subthreshold Leakage = 0.100074 W
        Subthreshold Leakage with power gating = 0.0723104 W
        Gate Leakage = 0.000520218 W
        Runtime Dynamic = 0.00910932 W

          Data Cache:
            Area = 0.744849 mm^2
            Peak Dynamic = 0.153817 W
            Subthreshold Leakage = 0.0953126 W
            Subthreshold Leakage with power gating = 0.0688824 W
            Gate Leakage = 0.000477874 W
            Runtime Dynamic = 0.00429027 W

          Load/Store Queue:
            Area = 0.0246589 mm^2
            Peak Dynamic = 0.00279776 W
            Subthreshold Leakage = 0.00236645 W
            Subthreshold Leakage with power gating = 0.00170385 W
            Gate Leakage = 1.20553e-05 W
            Runtime Dynamic = 0.00454625 W

      Memory Management Unit:
        Area = 0.0451477 mm^2
        Peak Dynamic = 0.00472733 W
        Subthreshold Leakage = 0.0067707 W
        Subthreshold Leakage with power gating = 0.0048749 W
        Runtime Dynamic = 0.000681996 W

          Itlb:
            Area = 0.0193508 mm^2
            Peak Dynamic = 0.000852331 W
            Subthreshold Leakage = 0.00218803 W
            Subthreshold Leakage with power gating = 0.00157538 W
            Gate Leakage = 1.02204e-05 W
            Runtime Dynamic = 0 W

          Dtlb:
            Area = 0.0193508 mm^2
            Peak Dynamic = 0.000852331 W
            Subthreshold Leakage = 0.00218803 W
            Subthreshold Leakage with power gating = 0.00157538 W
            Gate Leakage = 1.02204e-05 W
            Runtime Dynamic = 0 W

      Execution Unit:
        Area = 1.12881 mm^2
        Peak Dynamic = 0.10989 W
        Subthreshold Leakage = 0.194945 W
        Subthreshold Leakage with power gating = 0.140361 W
        Runtime Dynamic = 0.0022255 W

          Register Files:
            Area = 0.0209859 mm^2
            Peak Dynamic = 0.00440725 W
            Subthreshold Leakage = 0.000506267 W
            Subthreshold Leakage with power gating = 0.000365682 W
            Gate Leakage = 2.25559e-06 W
            Runtime Dynamic = 0 W

              Integer RF:
                Area = 0.0104929 mm^2
                Peak Dynamic = 0.00359776 W
                Subthreshold Leakage = 0.000253133 W
                Subthreshold Leakage with power gating = 0.000182841 W
                Gate Leakage = 1.1278e-06 W
                Runtime Dynamic = 0 W

              Floating Point RF:
                Area = 0.0104929 mm^2
                Peak Dynamic = 0.000809495 W
                Subthreshold Leakage = 0.000253133 W
                Subthreshold Leakage with power gating = 0.000182841 W
                Gate Leakage = 1.1278e-06 W
                Runtime Dynamic = 0 W

          Instruction Scheduler:
            Area = 0 mm^2
            Peak Dynamic = 0 W
            Subthreshold Leakage = 0 W
            Subthreshold Leakage with power gating = 0 W
            Gate Leakage = 0 W
            Runtime Dynamic = 0 W

          Integer ALUs (Count: 1 ):
            Area = 0.0483427 mm^2
            Peak Dynamic = 0.0213111 W
            Subthreshold Leakage = 0.0208371 W
            Subthreshold Leakage with power gating = 0.0150027 W
            Gate Leakage = 0.000104731 W
            Runtime Dynamic = 0.00107314 W

          Floating Point Units (FPUs) (Count: 1 ):
            Area = 0.901794 mm^2
            Peak Dynamic = 0.01918 W
            Subthreshold Leakage = 0.0971749 W
            Subthreshold Leakage with power gating = 0.0699659 W
            Gate Leakage = 0.000488418 W
            Runtime Dynamic = 0 W

          Complex ALUs (Mul/Div) (Count: 1 ):
            Area = 0.145028 mm^2
            Peak Dynamic = 0.0127866 W
            Subthreshold Leakage = 0.0625114 W
            Subthreshold Leakage with power gating = 0.0450082 W
            Gate Leakage = 0.000314193 W
            Runtime Dynamic = 6.11708e-05 W

          Results Broadcast Bus:
            Area Overhead = 0.00621299 mm^2
            Peak Dynamic = 0.047369 W
            Subthreshold Leakage = 0.0115202 W
            Subthreshold Leakage with power gating = 0.00829458 W
            Gate Leakage = 5.79028e-05 W
            Runtime Dynamic = 0 W

*****************************************************************************************
Core:
      Area = 3.68846 mm^2
      Peak Dynamic = 0.356579 W
      Subthreshold Leakage = 0.598087 W
      Subthreshold Leakage with power gating = 0.43124 W
      Gate Leakage = 0.00306614 W
      Runtime Dynamic = 0.022873 W

      Instruction Fetch Unit:
        Area = 0.657112 mm^2
        Peak Dynamic = 0.0841372 W
        Subthreshold Leakage = 0.0798172 W
        Subthreshold Leakage with power gating = 0.0578269 W
        Gate Leakage = 0.000409326 W
        Runtime Dynamic = 0.0108573 W

          Instruction Cache:
            Area = 0.588595 mm^2
            Peak Dynamic = 0.0733869 W
            Subthreshold Leakage = 0.0736664 W
            Subthreshold Leakage with power gating = 0.0532972 W
            Gate Leakage = 0.000368313 W
            Runtime Dynamic = 0.00908569 W

          Branch Target Buffer:
            Area = 0.0545931 mm^2
            Peak Dynamic = 0.00214156 W
            Subthreshold Leakage = 0.00255165 W
            Subthreshold Leakage with power gating = 0.00191185 W
            Gate Leakage = 5.3839e-06 W
            Runtime Dynamic = 0 W

          Branch Predictor:
            Area = 0.00582312 mm^2
            Peak Dynamic = 0.000776521 W
            Subthreshold Leakage = 0.000347436 W
            Subthreshold Leakage with power gating = 0.000273657 W
            Gate Leakage = 2.04177e-06 W
            Runtime Dynamic = 0 W

              Global Predictor:
                Area = 0.000832803 mm^2
                Peak Dynamic = 6.36785e-05 W
                Subthreshold Leakage = 6.22787e-05 W
                Subthreshold Leakage with power gating = 4.92388e-05 W
                Gate Leakage = 4.18718e-07 W
                Runtime Dynamic = 0 W

              Local Predictor:
              L1_Local Predictor:
                Area = 0.000832803 mm^2
                Peak Dynamic = 6.36785e-05 W
                Subthreshold Leakage = 6.22787e-05 W
                Subthreshold Leakage with power gating = 4.92388e-05 W
                Gate Leakage = 4.18718e-07 W
                Runtime Dynamic = 0 W

              L2_Local Predictor:
                Area = 0.000832803 mm^2
                Peak Dynamic = 6.36785e-05 W
                Subthreshold Leakage = 6.22787e-05 W
                Subthreshold Leakage with power gating = 4.92388e-05 W
                Gate Leakage = 4.18718e-07 W
                Runtime Dynamic = 0 W

              Chooser:
                Area = 0.000832803 mm^2
                Peak Dynamic = 6.36785e-05 W
                Subthreshold Leakage = 6.22787e-05 W
                Subthreshold Leakage with power gating = 4.92388e-05 W
                Gate Leakage = 4.18718e-07 W
                Runtime Dynamic = 0 W

              RAS:
                Area = 0.00249191 mm^2
                Peak Dynamic = 0.000521807 W
                Subthreshold Leakage = 9.83212e-05 W
                Subthreshold Leakage with power gating = 7.67022e-05 W
                Gate Leakage = 3.66901e-07 W
                Runtime Dynamic = 0 W

          Instruction Buffer:
            Area = 0.000562161 mm^2
            Peak Dynamic = 0.000337116 W
            Subthreshold Leakage = 3.89329e-05 W
            Subthreshold Leakage with power gating = 3.11228e-05 W
            Gate Leakage = 1.47028e-07 W
            Runtime Dynamic = 7.6256e-05 W

          Instruction Decoder:
            Area = 0.0010919 mm^2
            Peak Dynamic = 0.00628601 W
            Subthreshold Leakage = 0.000818074 W
            Subthreshold Leakage with power gating = 0.000589013 W
            Gate Leakage = 3.15098e-06 W
            Runtime Dynamic = 0.0014219 W

      Load Store Unit:
        Area = 0.852905 mm^2
        Peak Dynamic = 0.157824 W
        Subthreshold Leakage = 0.100074 W
        Subthreshold Leakage with power gating = 0.0723104 W
        Gate Leakage = 0.000520218 W
        Runtime Dynamic = 0.00910603 W

          Data Cache:
            Area = 0.744849 mm^2
            Peak Dynamic = 0.153817 W
            Subthreshold Leakage = 0.0953126 W
            Subthreshold Leakage with power gating = 0.0688824 W
            Gate Leakage = 0.000477874 W
            Runtime Dynamic = 0.00431481 W

          Load/Store Queue:
            Area = 0.0246589 mm^2
            Peak Dynamic = 0.00279776 W
            Subthreshold Leakage = 0.00236645 W
            Subthreshold Leakage with power gating = 0.00170385 W
            Gate Leakage = 1.20553e-05 W
            Runtime Dynamic = 0.00451778 W

      Memory Management Unit:
        Area = 0.0451477 mm^2
        Peak Dynamic = 0.00472733 W
        Subthreshold Leakage = 0.0067707 W
        Subthreshold Leakage with power gating = 0.0048749 W
        Runtime Dynamic = 0.000683585 W

          Itlb:
            Area = 0.0193508 mm^2
            Peak Dynamic = 0.000852331 W
            Subthreshold Leakage = 0.00218803 W
            Subthreshold Leakage with power gating = 0.00157538 W
            Gate Leakage = 1.02204e-05 W
            Runtime Dynamic = 0 W

          Dtlb:
            Area = 0.0193508 mm^2
            Peak Dynamic = 0.000852331 W
            Subthreshold Leakage = 0.00218803 W
            Subthreshold Leakage with power gating = 0.00157538 W
            Gate Leakage = 1.02204e-05 W
            Runtime Dynamic = 0 W

      Execution Unit:
        Area = 1.12881 mm^2
        Peak Dynamic = 0.10989 W
        Subthreshold Leakage = 0.194945 W
        Subthreshold Leakage with power gating = 0.140361 W
        Runtime Dynamic = 0.00222615 W

          Register Files:
            Area = 0.0209859 mm^2
            Peak Dynamic = 0.00440725 W
            Subthreshold Leakage = 0.000506267 W
            Subthreshold Leakage with power gating = 0.000365682 W
            Gate Leakage = 2.25559e-06 W
            Runtime Dynamic = 0 W

              Integer RF:
                Area = 0.0104929 mm^2
                Peak Dynamic = 0.00359776 W
                Subthreshold Leakage = 0.000253133 W
                Subthreshold Leakage with power gating = 0.000182841 W
                Gate Leakage = 1.1278e-06 W
                Runtime Dynamic = 0 W

              Floating Point RF:
                Area = 0.0104929 mm^2
                Peak Dynamic = 0.000809495 W
                Subthreshold Leakage = 0.000253133 W
                Subthreshold Leakage with power gating = 0.000182841 W
                Gate Leakage = 1.1278e-06 W
                Runtime Dynamic = 0 W

          Instruction Scheduler:
            Area = 0 mm^2
            Peak Dynamic = 0 W
            Subthreshold Leakage = 0 W
            Subthreshold Leakage with power gating = 0 W
            Gate Leakage = 0 W
            Runtime Dynamic = 0 W

          Integer ALUs (Count: 1 ):
            Area = 0.0483427 mm^2
            Peak Dynamic = 0.0213111 W
            Subthreshold Leakage = 0.0208371 W
            Subthreshold Leakage with power gating = 0.0150027 W
            Gate Leakage = 0.000104731 W
            Runtime Dynamic = 0.00106998 W

          Floating Point Units (FPUs) (Count: 1 ):
            Area = 0.901794 mm^2
            Peak Dynamic = 0.01918 W
            Subthreshold Leakage = 0.0971749 W
            Subthreshold Leakage with power gating = 0.0699659 W
            Gate Leakage = 0.000488418 W
            Runtime Dynamic = 0 W

          Complex ALUs (Mul/Div) (Count: 1 ):
            Area = 0.145028 mm^2
            Peak Dynamic = 0.0127866 W
            Subthreshold Leakage = 0.0625114 W
            Subthreshold Leakage with power gating = 0.0450082 W
            Gate Leakage = 0.000314193 W
            Runtime Dynamic = 6.24328e-05 W

          Results Broadcast Bus:
            Area Overhead = 0.00621299 mm^2
            Peak Dynamic = 0.047369 W
            Subthreshold Leakage = 0.0115202 W
            Subthreshold Leakage with power gating = 0.00829458 W
            Gate Leakage = 5.79028e-05 W
            Runtime Dynamic = 0 W

*****************************************************************************************
Core:
      Area = 3.68846 mm^2
      Peak Dynamic = 0.356579 W
      Subthreshold Leakage = 0.598087 W
      Subthreshold Leakage with power gating = 0.43124 W
      Gate Leakage = 0.00306614 W
      Runtime Dynamic = 0.0232658 W

      Instruction Fetch Unit:
        Area = 0.657112 mm^2
        Peak Dynamic = 0.0841372 W
        Subthreshold Leakage = 0.0798172 W
        Subthreshold Leakage with power gating = 0.0578269 W
        Gate Leakage = 0.000409326 W
        Runtime Dynamic = 0.0110236 W

          Instruction Cache:
            Area = 0.588595 mm^2
            Peak Dynamic = 0.0733869 W
            Subthreshold Leakage = 0.0736664 W
            Subthreshold Leakage with power gating = 0.0532972 W
            Gate Leakage = 0.000368313 W
            Runtime Dynamic = 0.00922359 W

          Branch Target Buffer:
            Area = 0.0545931 mm^2
            Peak Dynamic = 0.00214156 W
            Subthreshold Leakage = 0.00255165 W
            Subthreshold Leakage with power gating = 0.00191185 W
            Gate Leakage = 5.3839e-06 W
            Runtime Dynamic = 0 W

          Branch Predictor:
            Area = 0.00582312 mm^2
            Peak Dynamic = 0.000776521 W
            Subthreshold Leakage = 0.000347436 W
            Subthreshold Leakage with power gating = 0.000273657 W
            Gate Leakage = 2.04177e-06 W
            Runtime Dynamic = 0 W

              Global Predictor:
                Area = 0.000832803 mm^2
                Peak Dynamic = 6.36785e-05 W
                Subthreshold Leakage = 6.22787e-05 W
                Subthreshold Leakage with power gating = 4.92388e-05 W
                Gate Leakage = 4.18718e-07 W
                Runtime Dynamic = 0 W

              Local Predictor:
              L1_Local Predictor:
                Area = 0.000832803 mm^2
                Peak Dynamic = 6.36785e-05 W
                Subthreshold Leakage = 6.22787e-05 W
                Subthreshold Leakage with power gating = 4.92388e-05 W
                Gate Leakage = 4.18718e-07 W
                Runtime Dynamic = 0 W

              L2_Local Predictor:
                Area = 0.000832803 mm^2
                Peak Dynamic = 6.36785e-05 W
                Subthreshold Leakage = 6.22787e-05 W
                Subthreshold Leakage with power gating = 4.92388e-05 W
                Gate Leakage = 4.18718e-07 W
                Runtime Dynamic = 0 W

              Chooser:
                Area = 0.000832803 mm^2
                Peak Dynamic = 6.36785e-05 W
                Subthreshold Leakage = 6.22787e-05 W
                Subthreshold Leakage with power gating = 4.92388e-05 W
                Gate Leakage = 4.18718e-07 W
                Runtime Dynamic = 0 W

              RAS:
                Area = 0.00249191 mm^2
                Peak Dynamic = 0.000521807 W
                Subthreshold Leakage = 9.83212e-05 W
                Subthreshold Leakage with power gating = 7.67022e-05 W
                Gate Leakage = 3.66901e-07 W
                Runtime Dynamic = 0 W

          Instruction Buffer:
            Area = 0.000562161 mm^2
            Peak Dynamic = 0.000337116 W
            Subthreshold Leakage = 3.89329e-05 W
            Subthreshold Leakage with power gating = 3.11228e-05 W
            Gate Leakage = 1.47028e-07 W
            Runtime Dynamic = 7.74769e-05 W

          Instruction Decoder:
            Area = 0.0010919 mm^2
            Peak Dynamic = 0.00628601 W
            Subthreshold Leakage = 0.000818074 W
            Subthreshold Leakage with power gating = 0.000589013 W
            Gate Leakage = 3.15098e-06 W
            Runtime Dynamic = 0.00144467 W

      Load Store Unit:
        Area = 0.852905 mm^2
        Peak Dynamic = 0.157824 W
        Subthreshold Leakage = 0.100074 W
        Subthreshold Leakage with power gating = 0.0723104 W
        Gate Leakage = 0.000520218 W
        Runtime Dynamic = 0.00931043 W

          Data Cache:
            Area = 0.744849 mm^2
            Peak Dynamic = 0.153817 W
            Subthreshold Leakage = 0.0953126 W
            Subthreshold Leakage with power gating = 0.0688824 W
            Gate Leakage = 0.000477874 W
            Runtime Dynamic = 0.00440766 W

          Load/Store Queue:
            Area = 0.0246589 mm^2
            Peak Dynamic = 0.00279776 W
            Subthreshold Leakage = 0.00236645 W
            Subthreshold Leakage with power gating = 0.00170385 W
            Gate Leakage = 1.20553e-05 W
            Runtime Dynamic = 0.00462495 W

      Memory Management Unit:
        Area = 0.0451477 mm^2
        Peak Dynamic = 0.00472733 W
        Subthreshold Leakage = 0.0067707 W
        Subthreshold Leakage with power gating = 0.0048749 W
        Runtime Dynamic = 0.000694546 W

          Itlb:
            Area = 0.0193508 mm^2
            Peak Dynamic = 0.000852331 W
            Subthreshold Leakage = 0.00218803 W
            Subthreshold Leakage with power gating = 0.00157538 W
            Gate Leakage = 1.02204e-05 W
            Runtime Dynamic = 0 W

          Dtlb:
            Area = 0.0193508 mm^2
            Peak Dynamic = 0.000852331 W
            Subthreshold Leakage = 0.00218803 W
            Subthreshold Leakage with power gating = 0.00157538 W
            Gate Leakage = 1.02204e-05 W
            Runtime Dynamic = 0 W

      Execution Unit:
        Area = 1.12881 mm^2
        Peak Dynamic = 0.10989 W
        Subthreshold Leakage = 0.194945 W
        Subthreshold Leakage with power gating = 0.140361 W
        Runtime Dynamic = 0.00223727 W

          Register Files:
            Area = 0.0209859 mm^2
            Peak Dynamic = 0.00440725 W
            Subthreshold Leakage = 0.000506267 W
            Subthreshold Leakage with power gating = 0.000365682 W
            Gate Leakage = 2.25559e-06 W
            Runtime Dynamic = 0 W

              Integer RF:
                Area = 0.0104929 mm^2
                Peak Dynamic = 0.00359776 W
                Subthreshold Leakage = 0.000253133 W
                Subthreshold Leakage with power gating = 0.000182841 W
                Gate Leakage = 1.1278e-06 W
                Runtime Dynamic = 0 W

              Floating Point RF:
                Area = 0.0104929 mm^2
                Peak Dynamic = 0.000809495 W
                Subthreshold Leakage = 0.000253133 W
                Subthreshold Leakage with power gating = 0.000182841 W
                Gate Leakage = 1.1278e-06 W
                Runtime Dynamic = 0 W

          Instruction Scheduler:
            Area = 0 mm^2
            Peak Dynamic = 0 W
            Subthreshold Leakage = 0 W
            Subthreshold Leakage with power gating = 0 W
            Gate Leakage = 0 W
            Runtime Dynamic = 0 W

          Integer ALUs (Count: 1 ):
            Area = 0.0483427 mm^2
            Peak Dynamic = 0.0213111 W
            Subthreshold Leakage = 0.0208371 W
            Subthreshold Leakage with power gating = 0.0150027 W
            Gate Leakage = 0.000104731 W
            Runtime Dynamic = 0.00106575 W

          Floating Point Units (FPUs) (Count: 1 ):
            Area = 0.901794 mm^2
            Peak Dynamic = 0.01918 W
            Subthreshold Leakage = 0.0971749 W
            Subthreshold Leakage with power gating = 0.0699659 W
            Gate Leakage = 0.000488418 W
            Runtime Dynamic = 0 W

          Complex ALUs (Mul/Div) (Count: 1 ):
            Area = 0.145028 mm^2
            Peak Dynamic = 0.0127866 W
            Subthreshold Leakage = 0.0625114 W
            Subthreshold Leakage with power gating = 0.0450082 W
            Gate Leakage = 0.000314193 W
            Runtime Dynamic = 6.02452e-05 W

          Results Broadcast Bus:
            Area Overhead = 0.00621299 mm^2
            Peak Dynamic = 0.047369 W
            Subthreshold Leakage = 0.0115202 W
            Subthreshold Leakage with power gating = 0.00829458 W
            Gate Leakage = 5.79028e-05 W
            Runtime Dynamic = 0 W

*****************************************************************************************
Core:
      Area = 3.68846 mm^2
      Peak Dynamic = 0.356579 W
      Subthreshold Leakage = 0.598087 W
      Subthreshold Leakage with power gating = 0.43124 W
[...]
        Area = 1.12881 mm^2
        Peak Dynamic = 0.10989 W
        Subthreshold Leakage = 0.194945 W
        Subthreshold Leakage with power gating = 0.140361 W
        Runtime Dynamic = 0.00194002 W

          Register Files:
            Area = 0.0209859 mm^2
            Peak Dynamic = 0.00440725 W
            Subthreshold Leakage = 0.000506267 W
            Subthreshold Leakage with power gating = 0.000365682 W
            Gate Leakage = 2.25559e-06 W
            Runtime Dynamic = 0 W

              Integer RF:
                Area = 0.0104929 mm^2
                Peak Dynamic = 0.00359776 W
                Subthreshold Leakage = 0.000253133 W
                Subthreshold Leakage with power gating = 0.000182841 W
                Gate Leakage = 1.1278e-06 W
                Runtime Dynamic = 0 W

              Floating Point RF:
                Area = 0.0104929 mm^2
                Peak Dynamic = 0.000809495 W
                Subthreshold Leakage = 0.000253133 W
                Subthreshold Leakage with power gating = 0.000182841 W
                Gate Leakage = 1.1278e-06 W
                Runtime Dynamic = 0 W

          Instruction Scheduler:
            Area = 0 mm^2
            Peak Dynamic = 0 W
            Subthreshold Leakage = 0 W
            Subthreshold Leakage with power gating = 0 W
            Gate Leakage = 0 W
            Runtime Dynamic = 0 W

          Integer ALUs (Count: 1 ):
            Area = 0.0483427 mm^2
            Peak Dynamic = 0.0213111 W
            Subthreshold Leakage = 0.0208371 W
            Subthreshold Leakage with power gating = 0.0150027 W
            Gate Leakage = 0.000104731 W
            Runtime Dynamic = 0.000928839 W

          Floating Point Units (FPUs) (Count: 1 ):
            Area = 0.901794 mm^2
            Peak Dynamic = 0.01918 W
            Subthreshold Leakage = 0.0971749 W
            Subthreshold Leakage with power gating = 0.0699659 W
            Gate Leakage = 0.000488418 W
            Runtime Dynamic = 0 W

          Complex ALUs (Mul/Div) (Count: 1 ):
            Area = 0.145028 mm^2
            Peak Dynamic = 0.0127866 W
            Subthreshold Leakage = 0.0625114 W
            Subthreshold Leakage with power gating = 0.0450082 W
            Gate Leakage = 0.000314193 W
            Runtime Dynamic = 5.76033e-05 W

          Results Broadcast Bus:
            Area Overhead = 0.00621299 mm^2
            Peak Dynamic = 0.047369 W
            Subthreshold Leakage = 0.0115202 W
            Subthreshold Leakage with power gating = 0.00829458 W
            Gate Leakage = 5.79028e-05 W
            Runtime Dynamic = 0 W

*****************************************************************************************
Core:
      Area = 3.68846 mm^2
      Peak Dynamic = 0.356579 W
      Subthreshold Leakage = 0.598087 W
      Subthreshold Leakage with power gating = 0.43124 W
      Gate Leakage = 0.00306614 W
      Runtime Dynamic = 0.0189691 W

      Instruction Fetch Unit:
        Area = 0.657112 mm^2
        Peak Dynamic = 0.0841372 W
        Subthreshold Leakage = 0.0798172 W
        Subthreshold Leakage with power gating = 0.0578269 W
        Gate Leakage = 0.000409326 W
        Runtime Dynamic = 0.00907173 W

          Instruction Cache:
            Area = 0.588595 mm^2
            Peak Dynamic = 0.0733869 W
            Subthreshold Leakage = 0.0736664 W
            Subthreshold Leakage with power gating = 0.0532972 W
            Gate Leakage = 0.000368313 W
            Runtime Dynamic = 0.0075946 W

          Branch Target Buffer:
            Area = 0.0545931 mm^2
            Peak Dynamic = 0.00214156 W
            Subthreshold Leakage = 0.00255165 W
            Subthreshold Leakage with power gating = 0.00191185 W
            Gate Leakage = 5.3839e-06 W
            Runtime Dynamic = 0 W

          Branch Predictor:
            Area = 0.00582312 mm^2
            Peak Dynamic = 0.000776521 W
            Subthreshold Leakage = 0.000347436 W
            Subthreshold Leakage with power gating = 0.000273657 W
            Gate Leakage = 2.04177e-06 W
            Runtime Dynamic = 0 W

              Global Predictor:
                Area = 0.000832803 mm^2
                Peak Dynamic = 6.36785e-05 W
                Subthreshold Leakage = 6.22787e-05 W
                Subthreshold Leakage with power gating = 4.92388e-05 W
                Gate Leakage = 4.18718e-07 W
                Runtime Dynamic = 0 W

              Local Predictor:
              L1_Local Predictor:
                Area = 0.000832803 mm^2
                Peak Dynamic = 6.36785e-05 W
                Subthreshold Leakage = 6.22787e-05 W
                Subthreshold Leakage with power gating = 4.92388e-05 W
                Gate Leakage = 4.18718e-07 W
                Runtime Dynamic = 0 W

              L2_Local Predictor:
                Area = 0.000832803 mm^2
                Peak Dynamic = 6.36785e-05 W
                Subthreshold Leakage = 6.22787e-05 W
                Subthreshold Leakage with power gating = 4.92388e-05 W
                Gate Leakage = 4.18718e-07 W
                Runtime Dynamic = 0 W

              Chooser:
                Area = 0.000832803 mm^2
                Peak Dynamic = 6.36785e-05 W
                Subthreshold Leakage = 6.22787e-05 W
                Subthreshold Leakage with power gating = 4.92388e-05 W
                Gate Leakage = 4.18718e-07 W
                Runtime Dynamic = 0 W

              RAS:
                Area = 0.00249191 mm^2
                Peak Dynamic = 0.000521807 W
                Subthreshold Leakage = 9.83212e-05 W
                Subthreshold Leakage with power gating = 7.67022e-05 W
                Gate Leakage = 3.66901e-07 W
                Runtime Dynamic = 0 W

          Instruction Buffer:
            Area = 0.000562161 mm^2
            Peak Dynamic = 0.000337116 W
            Subthreshold Leakage = 3.89329e-05 W
            Subthreshold Leakage with power gating = 3.11228e-05 W
            Gate Leakage = 1.47028e-07 W
            Runtime Dynamic = 6.35806e-05 W

          Instruction Decoder:
            Area = 0.0010919 mm^2
            Peak Dynamic = 0.00628601 W
            Subthreshold Leakage = 0.000818074 W
            Subthreshold Leakage with power gating = 0.000589013 W
            Gate Leakage = 3.15098e-06 W
            Runtime Dynamic = 0.00118555 W

      Load Store Unit:
        Area = 0.852905 mm^2
        Peak Dynamic = 0.157824 W
        Subthreshold Leakage = 0.100074 W
        Subthreshold Leakage with power gating = 0.0723104 W
        Gate Leakage = 0.000520218 W
        Runtime Dynamic = 0.00742202 W

          Data Cache:
            Area = 0.744849 mm^2
            Peak Dynamic = 0.153817 W
            Subthreshold Leakage = 0.0953126 W
            Subthreshold Leakage with power gating = 0.0688824 W
            Gate Leakage = 0.000477874 W
            Runtime Dynamic = 0.00356627 W

          Load/Store Queue:
            Area = 0.0246589 mm^2
            Peak Dynamic = 0.00279776 W
            Subthreshold Leakage = 0.00236645 W
            Subthreshold Leakage with power gating = 0.00170385 W
            Gate Leakage = 1.20553e-05 W
            Runtime Dynamic = 0.00362776 W

      Memory Management Unit:
        Area = 0.0451477 mm^2
        Peak Dynamic = 0.00472733 W
        Subthreshold Leakage = 0.0067707 W
        Subthreshold Leakage with power gating = 0.0048749 W
        Runtime Dynamic = 0.00056998 W

          Itlb:
            Area = 0.0193508 mm^2
            Peak Dynamic = 0.000852331 W
            Subthreshold Leakage = 0.00218803 W
            Subthreshold Leakage with power gating = 0.00157538 W
            Gate Leakage = 1.02204e-05 W
            Runtime Dynamic = 0 W

          Dtlb:
            Area = 0.0193508 mm^2
            Peak Dynamic = 0.000852331 W
            Subthreshold Leakage = 0.00218803 W
            Subthreshold Leakage with power gating = 0.00157538 W
            Gate Leakage = 1.02204e-05 W
            Runtime Dynamic = 0 W

      Execution Unit:
        Area = 1.12881 mm^2
        Peak Dynamic = 0.10989 W
        Subthreshold Leakage = 0.194945 W
        Subthreshold Leakage with power gating = 0.140361 W
        Runtime Dynamic = 0.00190541 W

          Register Files:
            Area = 0.0209859 mm^2
            Peak Dynamic = 0.00440725 W
            Subthreshold Leakage = 0.000506267 W
            Subthreshold Leakage with power gating = 0.000365682 W
            Gate Leakage = 2.25559e-06 W
            Runtime Dynamic = 0 W

              Integer RF:
                Area = 0.0104929 mm^2
                Peak Dynamic = 0.00359776 W
                Subthreshold Leakage = 0.000253133 W
                Subthreshold Leakage with power gating = 0.000182841 W
                Gate Leakage = 1.1278e-06 W
                Runtime Dynamic = 0 W

              Floating Point RF:
                Area = 0.0104929 mm^2
                Peak Dynamic = 0.000809495 W
                Subthreshold Leakage = 0.000253133 W
                Subthreshold Leakage with power gating = 0.000182841 W
                Gate Leakage = 1.1278e-06 W
                Runtime Dynamic = 0 W

          Instruction Scheduler:
            Area = 0 mm^2
            Peak Dynamic = 0 W
            Subthreshold Leakage = 0 W
            Subthreshold Leakage with power gating = 0 W
            Gate Leakage = 0 W
            Runtime Dynamic = 0 W

          Integer ALUs (Count: 1 ):
            Area = 0.0483427 mm^2
            Peak Dynamic = 0.0213111 W
            Subthreshold Leakage = 0.0208371 W
            Subthreshold Leakage with power gating = 0.0150027 W
            Gate Leakage = 0.000104731 W
            Runtime Dynamic = 0.000931934 W

          Floating Point Units (FPUs) (Count: 1 ):
            Area = 0.901794 mm^2
            Peak Dynamic = 0.01918 W
            Subthreshold Leakage = 0.0971749 W
            Subthreshold Leakage with power gating = 0.0699659 W
            Gate Leakage = 0.000488418 W
            Runtime Dynamic = 0 W

          Complex ALUs (Mul/Div) (Count: 1 ):
            Area = 0.145028 mm^2
            Peak Dynamic = 0.0127866 W
            Subthreshold Leakage = 0.0625114 W
            Subthreshold Leakage with power gating = 0.0450082 W
            Gate Leakage = 0.000314193 W
            Runtime Dynamic = 6.15129e-05 W

          Results Broadcast Bus:
            Area Overhead = 0.00621299 mm^2
            Peak Dynamic = 0.047369 W
            Subthreshold Leakage = 0.0115202 W
            Subthreshold Leakage with power gating = 0.00829458 W
            Gate Leakage = 5.79028e-05 W
            Runtime Dynamic = 0 W

*****************************************************************************************
Core:
      Area = 3.68846 mm^2
      Peak Dynamic = 0.356579 W
      Subthreshold Leakage = 0.598087 W
      Subthreshold Leakage with power gating = 0.43124 W
      Gate Leakage = 0.00306614 W
      Runtime Dynamic = 0.0188659 W

      Instruction Fetch Unit:
        Area = 0.657112 mm^2
        Peak Dynamic = 0.0841372 W
        Subthreshold Leakage = 0.0798172 W
        Subthreshold Leakage with power gating = 0.0578269 W
        Gate Leakage = 0.000409326 W
        Runtime Dynamic = 0.0090379 W

          Instruction Cache:
            Area = 0.588595 mm^2
            Peak Dynamic = 0.0733869 W
            Subthreshold Leakage = 0.0736664 W
            Subthreshold Leakage with power gating = 0.0532972 W
            Gate Leakage = 0.000368313 W
            Runtime Dynamic = 0.00756778 W

          Branch Target Buffer:
            Area = 0.0545931 mm^2
            Peak Dynamic = 0.00214156 W
            Subthreshold Leakage = 0.00255165 W
            Subthreshold Leakage with power gating = 0.00191185 W
            Gate Leakage = 5.3839e-06 W
            Runtime Dynamic = 0 W

          Branch Predictor:
            Area = 0.00582312 mm^2
            Peak Dynamic = 0.000776521 W
            Subthreshold Leakage = 0.000347436 W
            Subthreshold Leakage with power gating = 0.000273657 W
            Gate Leakage = 2.04177e-06 W
            Runtime Dynamic = 0 W

              Global Predictor:
                Area = 0.000832803 mm^2
                Peak Dynamic = 6.36785e-05 W
                Subthreshold Leakage = 6.22787e-05 W
                Subthreshold Leakage with power gating = 4.92388e-05 W
                Gate Leakage = 4.18718e-07 W
                Runtime Dynamic = 0 W

              Local Predictor:
              L1_Local Predictor:
                Area = 0.000832803 mm^2
                Peak Dynamic = 6.36785e-05 W
                Subthreshold Leakage = 6.22787e-05 W
                Subthreshold Leakage with power gating = 4.92388e-05 W
                Gate Leakage = 4.18718e-07 W
                Runtime Dynamic = 0 W

              L2_Local Predictor:
                Area = 0.000832803 mm^2
                Peak Dynamic = 6.36785e-05 W
                Subthreshold Leakage = 6.22787e-05 W
                Subthreshold Leakage with power gating = 4.92388e-05 W
                Gate Leakage = 4.18718e-07 W
                Runtime Dynamic = 0 W

              Chooser:
                Area = 0.000832803 mm^2
                Peak Dynamic = 6.36785e-05 W
                Subthreshold Leakage = 6.22787e-05 W
                Subthreshold Leakage with power gating = 4.92388e-05 W
                Gate Leakage = 4.18718e-07 W
                Runtime Dynamic = 0 W

              RAS:
                Area = 0.00249191 mm^2
                Peak Dynamic = 0.000521807 W
                Subthreshold Leakage = 9.83212e-05 W
                Subthreshold Leakage with power gating = 7.67022e-05 W
                Gate Leakage = 3.66901e-07 W
                Runtime Dynamic = 0 W

          Instruction Buffer:
            Area = 0.000562161 mm^2
            Peak Dynamic = 0.000337116 W
            Subthreshold Leakage = 3.89329e-05 W
            Subthreshold Leakage with power gating = 3.11228e-05 W
            Gate Leakage = 1.47028e-07 W
            Runtime Dynamic = 6.32791e-05 W

          Instruction Decoder:
            Area = 0.0010919 mm^2
            Peak Dynamic = 0.00628601 W
            Subthreshold Leakage = 0.000818074 W
            Subthreshold Leakage with power gating = 0.000589013 W
            Gate Leakage = 3.15098e-06 W
            Runtime Dynamic = 0.00117993 W

      Load Store Unit:
        Area = 0.852905 mm^2
        Peak Dynamic = 0.157824 W
        Subthreshold Leakage = 0.100074 W
        Subthreshold Leakage with power gating = 0.0723104 W
        Gate Leakage = 0.000520218 W
        Runtime Dynamic = 0.00734509 W

          Data Cache:
            Area = 0.744849 mm^2
            Peak Dynamic = 0.153817 W
            Subthreshold Leakage = 0.0953126 W
            Subthreshold Leakage with power gating = 0.0688824 W
            Gate Leakage = 0.000477874 W
            Runtime Dynamic = 0.00352977 W

          Load/Store Queue:
            Area = 0.0246589 mm^2
            Peak Dynamic = 0.00279776 W
            Subthreshold Leakage = 0.00236645 W
            Subthreshold Leakage with power gating = 0.00170385 W
            Gate Leakage = 1.20553e-05 W
            Runtime Dynamic = 0.00358841 W

      Memory Management Unit:
        Area = 0.0451477 mm^2
        Peak Dynamic = 0.00472733 W
        Subthreshold Leakage = 0.0067707 W
        Subthreshold Leakage with power gating = 0.0048749 W
        Runtime Dynamic = 0.000567282 W

          Itlb:
            Area = 0.0193508 mm^2
            Peak Dynamic = 0.000852331 W
            Subthreshold Leakage = 0.00218803 W
            Subthreshold Leakage with power gating = 0.00157538 W
            Gate Leakage = 1.02204e-05 W
            Runtime Dynamic = 0 W

          Dtlb:
            Area = 0.0193508 mm^2
            Peak Dynamic = 0.000852331 W
            Subthreshold Leakage = 0.00218803 W
            Subthreshold Leakage with power gating = 0.00157538 W
            Gate Leakage = 1.02204e-05 W
            Runtime Dynamic = 0 W

      Execution Unit:
        Area = 1.12881 mm^2
        Peak Dynamic = 0.10989 W
        Subthreshold Leakage = 0.194945 W
        Subthreshold Leakage with power gating = 0.140361 W
        Runtime Dynamic = 0.00191567 W

          Register Files:
            Area = 0.0209859 mm^2
            Peak Dynamic = 0.00440725 W
            Subthreshold Leakage = 0.000506267 W
            Subthreshold Leakage with power gating = 0.000365682 W
            Gate Leakage = 2.25559e-06 W
            Runtime Dynamic = 0 W

              Integer RF:
                Area = 0.0104929 mm^2
                Peak Dynamic = 0.00359776 W
                Subthreshold Leakage = 0.000253133 W
                Subthreshold Leakage with power gating = 0.000182841 W
                Gate Leakage = 1.1278e-06 W
                Runtime Dynamic = 0 W

              Floating Point RF:
                Area = 0.0104929 mm^2
                Peak Dynamic = 0.000809495 W
                Subthreshold Leakage = 0.000253133 W
                Subthreshold Leakage with power gating = 0.000182841 W
                Gate Leakage = 1.1278e-06 W
                Runtime Dynamic = 0 W

          Instruction Scheduler:
            Area = 0 mm^2
            Peak Dynamic = 0 W
            Subthreshold Leakage = 0 W
            Subthreshold Leakage with power gating = 0 W
            Gate Leakage = 0 W
            Runtime Dynamic = 0 W

          Integer ALUs (Count: 1 ):
            Area = 0.0483427 mm^2
            Peak Dynamic = 0.0213111 W
            Subthreshold Leakage = 0.0208371 W
            Subthreshold Leakage with power gating = 0.0150027 W
            Gate Leakage = 0.000104731 W
            Runtime Dynamic = 0.000949285 W

          Floating Point Units (FPUs) (Count: 1 ):
            Area = 0.901794 mm^2
            Peak Dynamic = 0.01918 W
            Subthreshold Leakage = 0.0971749 W
            Subthreshold Leakage with power gating = 0.0699659 W
            Gate Leakage = 0.000488418 W
            Runtime Dynamic = 0 W

          Complex ALUs (Mul/Div) (Count: 1 ):
            Area = 0.145028 mm^2
            Peak Dynamic = 0.0127866 W
            Subthreshold Leakage = 0.0625114 W
            Subthreshold Leakage with power gating = 0.0450082 W
            Gate Leakage = 0.000314193 W
            Runtime Dynamic = 5.87336e-05 W

          Results Broadcast Bus:
            Area Overhead = 0.00621299 mm^2
            Peak Dynamic = 0.047369 W
            Subthreshold Leakage = 0.0115202 W
            Subthreshold Leakage with power gating = 0.00829458 W
            Gate Leakage = 5.79028e-05 W
            Runtime Dynamic = 0 W

*****************************************************************************************
First Level Directory
      Area = 0.22996 mm^2
      Peak Dynamic = 0.181271 W
      Subthreshold Leakage = 0.045217 W
      Subthreshold Leakage with power gating = 0.0331241 W
      Gate Leakage = 0.00491722 W
      Runtime Dynamic = 0 W

*****************************************************************************************
Memory Controller:
      Area = 0.106977 mm^2
      Peak Dynamic = 2.03862 W
      Subthreshold Leakage = 1.6567 W
      Subthreshold Leakage with power gating = 0.500555 W
      Gate Leakage = 0.000147409 W
      Runtime Dynamic = 0.203862 W

      Front End Engine:
        Area = 0.0513081 mm^2
        Peak Dynamic = 0.236335 W
        Subthreshold Leakage = 0.92052 W
        Subthreshold Leakage with power gating = 0.288535 W
        Gate Leakage = 4.45306e-05 W
        Runtime Dynamic = 0.0236335 W

      Transaction Engine:
        Area = 0.0556686 mm^2
        Peak Dynamic = 1.80229 W
        Subthreshold Leakage = 0.736181 W
        Subthreshold Leakage with power gating = 0.21202 W
        Gate Leakage = 0.000102878 W
        Runtime Dynamic = 0.180229 W

*****************************************************************************************
