McPAT (version 1.2 of June, 2014) is computing the target processor...
 
